<routes>
            <vType id="car" accel="0.8" decel="4.5" sigma="0.5" length="5" minGap="2.5" maxSpeed="16.67" guiShape="passenger"/>
            
            <route id="E_N" edges="1i 2o"/>
            <route id="E_W" edges="1i 3o"/>
            <route id="E_S" edges="1i 4o"/>
            <route id="N_W" edges="2i 3o"/>
            <route id="N_S" edges="2i 4o"/>
            <route id="N_E" edges="2i 1o"/>
            <route id="W_S" edges="3i 4o"/>
            <route id="W_E" edges="3i 1o"/>
            <route id="W_N" edges="3i 2o"/>
            <route id="S_E" edges="4i 1o"/>
            <route id="S_N" edges="4i 2o"/>
            <route id="S_W" edges="4i 3o"/>
            
    <vehicle id="W_N_0" type="car" route="W_N" depart="0" departLane="random"/>
    <vehicle id="N_W_1" type="car" route="N_W" depart="1" departLane="random"/>
    <vehicle id="N_E_2" type="car" route="N_E" depart="2" departLane="random"/>
    <vehicle id="N_E_3" type="car" route="N_E" depart="3" departLane="random"/>
    <vehicle id="S_N_4" type="car" route="S_N" depart="4" departLane="random"/>
    <vehicle id="E_N_5" type="car" route="E_N" depart="5" departLane="random"/>
    <vehicle id="E_W_6" type="car" route="E_W" depart="6" departLane="random"/>
    <vehicle id="W_E_7" type="car" route="W_E" depart="7" departLane="random"/>
    <vehicle id="W_E_8" type="car" route="W_E" depart="8" departLane="random"/>
    <vehicle id="N_E_9" type="car" route="N_E" depart="9" departLane="random"/>
    <vehicle id="N_E_10" type="car" route="N_E" depart="10" departLane="random"/>
    <vehicle id="N_W_11" type="car" route="N_W" depart="11" departLane="random"/>
    <vehicle id="E_S_12" type="car" route="E_S" depart="12" departLane="random"/>
    <vehicle id="N_S_13" type="car" route="N_S" depart="13" departLane="random"/>
    <vehicle id="W_E_14" type="car" route="W_E" depart="14" departLane="random"/>
    <vehicle id="S_N_15" type="car" route="S_N" depart="15" departLane="random"/>
    <vehicle id="S_N_16" type="car" route="S_N" depart="16" departLane="random"/>
    <vehicle id="N_W_17" type="car" route="N_W" depart="17" departLane="random"/>
    <vehicle id="E_S_18" type="car" route="E_S" depart="18" departLane="random"/>
    <vehicle id="W_S_19" type="car" route="W_S" depart="19" departLane="random"/>
    <vehicle id="E_W_20" type="car" route="E_W" depart="20" departLane="random"/>
    <vehicle id="W_E_21" type="car" route="W_E" depart="21" departLane="random"/>
    <vehicle id="W_S_22" type="car" route="W_S" depart="22" departLane="random"/>
    <vehicle id="W_S_23" type="car" route="W_S" depart="23" departLane="random"/>
    <vehicle id="E_S_24" type="car" route="E_S" depart="24" departLane="random"/>
    <vehicle id="E_W_25" type="car" route="E_W" depart="25" departLane="random"/>
    <vehicle id="W_S_26" type="car" route="W_S" depart="26" departLane="random"/>
    <vehicle id="E_N_27" type="car" route="E_N" depart="27" departLane="random"/>
    <vehicle id="E_N_28" type="car" route="E_N" depart="28" departLane="random"/>
    <vehicle id="W_N_29" type="car" route="W_N" depart="29" departLane="random"/>
    <vehicle id="S_N_30" type="car" route="S_N" depart="30" departLane="random"/>
    <vehicle id="N_W_31" type="car" route="N_W" depart="31" departLane="random"/>
    <vehicle id="S_N_32" type="car" route="S_N" depart="32" departLane="random"/>
    <vehicle id="W_E_33" type="car" route="W_E" depart="33" departLane="random"/>
    <vehicle id="E_W_34" type="car" route="E_W" depart="34" departLane="random"/>
    <vehicle id="S_N_35" type="car" route="S_N" depart="35" departLane="random"/>
    <vehicle id="W_N_36" type="car" route="W_N" depart="36" departLane="random"/>
    <vehicle id="W_E_37" type="car" route="W_E" depart="37" departLane="random"/>
    <vehicle id="N_E_38" type="car" route="N_E" depart="38" departLane="random"/>
    <vehicle id="E_S_39" type="car" route="E_S" depart="39" departLane="random"/>
    <vehicle id="W_S_40" type="car" route="W_S" depart="40" departLane="random"/>
    <vehicle id="S_W_41" type="car" route="S_W" depart="41" departLane="random"/>
    <vehicle id="S_N_42" type="car" route="S_N" depart="42" departLane="random"/>
    <vehicle id="W_N_43" type="car" route="W_N" depart="43" departLane="random"/>
    <vehicle id="W_E_44" type="car" route="W_E" depart="44" departLane="random"/>
    <vehicle id="W_N_45" type="car" route="W_N" depart="45" departLane="random"/>
    <vehicle id="S_W_46" type="car" route="S_W" depart="46" departLane="random"/>
    <vehicle id="S_N_47" type="car" route="S_N" depart="47" departLane="random"/>
    <vehicle id="N_W_48" type="car" route="N_W" depart="48" departLane="random"/>
    <vehicle id="E_S_49" type="car" route="E_S" depart="49" departLane="random"/>
    <vehicle id="N_S_50" type="car" route="N_S" depart="50" departLane="random"/>
    <vehicle id="N_E_51" type="car" route="N_E" depart="51" departLane="random"/>
    <vehicle id="E_N_52" type="car" route="E_N" depart="52" departLane="random"/>
    <vehicle id="E_S_53" type="car" route="E_S" depart="53" departLane="random"/>
    <vehicle id="E_W_54" type="car" route="E_W" depart="54" departLane="random"/>
    <vehicle id="W_S_55" type="car" route="W_S" depart="55" departLane="random"/>
    <vehicle id="S_W_56" type="car" route="S_W" depart="56" departLane="random"/>
    <vehicle id="E_S_57" type="car" route="E_S" depart="57" departLane="random"/>
    <vehicle id="S_E_58" type="car" route="S_E" depart="58" departLane="random"/>
    <vehicle id="S_E_59" type="car" route="S_E" depart="59" departLane="random"/>
    <vehicle id="S_N_60" type="car" route="S_N" depart="60" departLane="random"/>
    <vehicle id="N_W_61" type="car" route="N_W" depart="61" departLane="random"/>
    <vehicle id="N_E_62" type="car" route="N_E" depart="62" departLane="random"/>
    <vehicle id="W_E_63" type="car" route="W_E" depart="63" departLane="random"/>
    <vehicle id="S_W_64" type="car" route="S_W" depart="64" departLane="random"/>
    <vehicle id="N_W_65" type="car" route="N_W" depart="65" departLane="random"/>
    <vehicle id="N_E_66" type="car" route="N_E" depart="66" departLane="random"/>
    <vehicle id="N_W_67" type="car" route="N_W" depart="67" departLane="random"/>
    <vehicle id="N_E_68" type="car" route="N_E" depart="68" departLane="random"/>
    <vehicle id="N_S_69" type="car" route="N_S" depart="69" departLane="random"/>
    <vehicle id="E_N_70" type="car" route="E_N" depart="70" departLane="random"/>
    <vehicle id="S_W_71" type="car" route="S_W" depart="71" departLane="random"/>
    <vehicle id="E_N_72" type="car" route="E_N" depart="72" departLane="random"/>
    <vehicle id="N_S_73" type="car" route="N_S" depart="73" departLane="random"/>
    <vehicle id="W_S_74" type="car" route="W_S" depart="74" departLane="random"/>
    <vehicle id="E_W_75" type="car" route="E_W" depart="75" departLane="random"/>
    <vehicle id="W_S_76" type="car" route="W_S" depart="76" departLane="random"/>
    <vehicle id="N_W_77" type="car" route="N_W" depart="77" departLane="random"/>
    <vehicle id="E_S_78" type="car" route="E_S" depart="78" departLane="random"/>
    <vehicle id="E_N_79" type="car" route="E_N" depart="79" departLane="random"/>
    <vehicle id="N_W_80" type="car" route="N_W" depart="80" departLane="random"/>
    <vehicle id="E_W_81" type="car" route="E_W" depart="81" departLane="random"/>
    <vehicle id="N_S_82" type="car" route="N_S" depart="82" departLane="random"/>
    <vehicle id="E_S_83" type="car" route="E_S" depart="83" departLane="random"/>
    <vehicle id="E_W_84" type="car" route="E_W" depart="84" departLane="random"/>
    <vehicle id="N_E_85" type="car" route="N_E" depart="85" departLane="random"/>
    <vehicle id="E_N_86" type="car" route="E_N" depart="86" departLane="random"/>
    <vehicle id="E_W_87" type="car" route="E_W" depart="87" departLane="random"/>
    <vehicle id="E_S_88" type="car" route="E_S" depart="88" departLane="random"/>
    <vehicle id="N_W_89" type="car" route="N_W" depart="89" departLane="random"/>
    <vehicle id="S_N_90" type="car" route="S_N" depart="90" departLane="random"/>
    <vehicle id="N_E_91" type="car" route="N_E" depart="91" departLane="random"/>
    <vehicle id="S_N_92" type="car" route="S_N" depart="92" departLane="random"/>
    <vehicle id="N_W_93" type="car" route="N_W" depart="93" departLane="random"/>
    <vehicle id="S_E_94" type="car" route="S_E" depart="94" departLane="random"/>
    <vehicle id="E_S_95" type="car" route="E_S" depart="95" departLane="random"/>
    <vehicle id="E_S_96" type="car" route="E_S" depart="96" departLane="random"/>
    <vehicle id="W_E_97" type="car" route="W_E" depart="97" departLane="random"/>
    <vehicle id="N_E_98" type="car" route="N_E" depart="98" departLane="random"/>
    <vehicle id="S_N_99" type="car" route="S_N" depart="99" departLane="random"/>
    <vehicle id="W_E_100" type="car" route="W_E" depart="100" departLane="random"/>
    <vehicle id="S_E_101" type="car" route="S_E" depart="101" departLane="random"/>
    <vehicle id="N_E_102" type="car" route="N_E" depart="102" departLane="random"/>
    <vehicle id="N_W_103" type="car" route="N_W" depart="103" departLane="random"/>
    <vehicle id="S_W_104" type="car" route="S_W" depart="104" departLane="random"/>
    <vehicle id="E_S_105" type="car" route="E_S" depart="105" departLane="random"/>
    <vehicle id="N_E_106" type="car" route="N_E" depart="106" departLane="random"/>
    <vehicle id="W_S_107" type="car" route="W_S" depart="107" departLane="random"/>
    <vehicle id="W_S_108" type="car" route="W_S" depart="108" departLane="random"/>
    <vehicle id="S_N_109" type="car" route="S_N" depart="109" departLane="random"/>
    <vehicle id="W_E_110" type="car" route="W_E" depart="110" departLane="random"/>
    <vehicle id="N_E_111" type="car" route="N_E" depart="111" departLane="random"/>
    <vehicle id="S_W_112" type="car" route="S_W" depart="112" departLane="random"/>
    <vehicle id="W_E_113" type="car" route="W_E" depart="113" departLane="random"/>
    <vehicle id="W_N_114" type="car" route="W_N" depart="114" departLane="random"/>
    <vehicle id="W_S_115" type="car" route="W_S" depart="115" departLane="random"/>
    <vehicle id="N_S_116" type="car" route="N_S" depart="116" departLane="random"/>
    <vehicle id="W_N_117" type="car" route="W_N" depart="117" departLane="random"/>
    <vehicle id="N_W_118" type="car" route="N_W" depart="118" departLane="random"/>
    <vehicle id="S_E_119" type="car" route="S_E" depart="119" departLane="random"/>
    <vehicle id="W_S_120" type="car" route="W_S" depart="120" departLane="random"/>
    <vehicle id="W_N_121" type="car" route="W_N" depart="121" departLane="random"/>
    <vehicle id="W_E_122" type="car" route="W_E" depart="122" departLane="random"/>
    <vehicle id="N_E_123" type="car" route="N_E" depart="123" departLane="random"/>
    <vehicle id="N_W_124" type="car" route="N_W" depart="124" departLane="random"/>
    <vehicle id="W_N_125" type="car" route="W_N" depart="125" departLane="random"/>
    <vehicle id="W_E_126" type="car" route="W_E" depart="126" departLane="random"/>
    <vehicle id="E_N_127" type="car" route="E_N" depart="127" departLane="random"/>
    <vehicle id="N_E_128" type="car" route="N_E" depart="128" departLane="random"/>
    <vehicle id="E_S_129" type="car" route="E_S" depart="129" departLane="random"/>
    <vehicle id="E_S_130" type="car" route="E_S" depart="130" departLane="random"/>
    <vehicle id="S_E_131" type="car" route="S_E" depart="131" departLane="random"/>
    <vehicle id="S_E_132" type="car" route="S_E" depart="132" departLane="random"/>
    <vehicle id="E_N_133" type="car" route="E_N" depart="133" departLane="random"/>
    <vehicle id="W_S_134" type="car" route="W_S" depart="134" departLane="random"/>
    <vehicle id="W_N_135" type="car" route="W_N" depart="135" departLane="random"/>
    <vehicle id="E_S_136" type="car" route="E_S" depart="136" departLane="random"/>
    <vehicle id="N_E_137" type="car" route="N_E" depart="137" departLane="random"/>
    <vehicle id="E_N_138" type="car" route="E_N" depart="138" departLane="random"/>
    <vehicle id="S_N_139" type="car" route="S_N" depart="139" departLane="random"/>
    <vehicle id="E_N_140" type="car" route="E_N" depart="140" departLane="random"/>
    <vehicle id="N_E_141" type="car" route="N_E" depart="141" departLane="random"/>
    <vehicle id="S_E_142" type="car" route="S_E" depart="142" departLane="random"/>
    <vehicle id="N_E_143" type="car" route="N_E" depart="143" departLane="random"/>
    <vehicle id="W_N_144" type="car" route="W_N" depart="144" departLane="random"/>
    <vehicle id="W_E_145" type="car" route="W_E" depart="145" departLane="random"/>
    <vehicle id="W_S_146" type="car" route="W_S" depart="146" departLane="random"/>
    <vehicle id="S_W_147" type="car" route="S_W" depart="147" departLane="random"/>
    <vehicle id="N_W_148" type="car" route="N_W" depart="148" departLane="random"/>
    <vehicle id="E_N_149" type="car" route="E_N" depart="149" departLane="random"/>
    <vehicle id="E_S_150" type="car" route="E_S" depart="150" departLane="random"/>
    <vehicle id="N_W_151" type="car" route="N_W" depart="151" departLane="random"/>
    <vehicle id="E_S_152" type="car" route="E_S" depart="152" departLane="random"/>
    <vehicle id="W_E_153" type="car" route="W_E" depart="153" departLane="random"/>
    <vehicle id="E_W_154" type="car" route="E_W" depart="154" departLane="random"/>
    <vehicle id="S_E_155" type="car" route="S_E" depart="155" departLane="random"/>
    <vehicle id="N_S_156" type="car" route="N_S" depart="156" departLane="random"/>
    <vehicle id="E_S_157" type="car" route="E_S" depart="157" departLane="random"/>
    <vehicle id="S_E_158" type="car" route="S_E" depart="158" departLane="random"/>
    <vehicle id="S_W_159" type="car" route="S_W" depart="159" departLane="random"/>
    <vehicle id="N_W_160" type="car" route="N_W" depart="160" departLane="random"/>
    <vehicle id="E_S_161" type="car" route="E_S" depart="161" departLane="random"/>
    <vehicle id="E_W_162" type="car" route="E_W" depart="162" departLane="random"/>
    <vehicle id="S_E_163" type="car" route="S_E" depart="163" departLane="random"/>
    <vehicle id="W_E_164" type="car" route="W_E" depart="164" departLane="random"/>
    <vehicle id="W_S_165" type="car" route="W_S" depart="165" departLane="random"/>
    <vehicle id="E_N_166" type="car" route="E_N" depart="166" departLane="random"/>
    <vehicle id="S_W_167" type="car" route="S_W" depart="167" departLane="random"/>
    <vehicle id="E_W_168" type="car" route="E_W" depart="168" departLane="random"/>
    <vehicle id="S_E_169" type="car" route="S_E" depart="169" departLane="random"/>
    <vehicle id="N_W_170" type="car" route="N_W" depart="170" departLane="random"/>
    <vehicle id="E_S_171" type="car" route="E_S" depart="171" departLane="random"/>
    <vehicle id="W_E_172" type="car" route="W_E" depart="172" departLane="random"/>
    <vehicle id="N_S_173" type="car" route="N_S" depart="173" departLane="random"/>
    <vehicle id="W_N_174" type="car" route="W_N" depart="174" departLane="random"/>
    <vehicle id="S_W_175" type="car" route="S_W" depart="175" departLane="random"/>
    <vehicle id="N_S_176" type="car" route="N_S" depart="176" departLane="random"/>
    <vehicle id="E_W_177" type="car" route="E_W" depart="177" departLane="random"/>
    <vehicle id="E_W_178" type="car" route="E_W" depart="178" departLane="random"/>
    <vehicle id="E_W_179" type="car" route="E_W" depart="179" departLane="random"/>
    <vehicle id="E_N_180" type="car" route="E_N" depart="180" departLane="random"/>
    <vehicle id="E_N_181" type="car" route="E_N" depart="181" departLane="random"/>
    <vehicle id="S_W_182" type="car" route="S_W" depart="182" departLane="random"/>
    <vehicle id="W_E_183" type="car" route="W_E" depart="183" departLane="random"/>
    <vehicle id="S_N_184" type="car" route="S_N" depart="184" departLane="random"/>
    <vehicle id="E_S_185" type="car" route="E_S" depart="185" departLane="random"/>
    <vehicle id="S_N_186" type="car" route="S_N" depart="186" departLane="random"/>
    <vehicle id="W_E_187" type="car" route="W_E" depart="187" departLane="random"/>
    <vehicle id="W_E_188" type="car" route="W_E" depart="188" departLane="random"/>
    <vehicle id="W_E_189" type="car" route="W_E" depart="189" departLane="random"/>
    <vehicle id="N_W_190" type="car" route="N_W" depart="190" departLane="random"/>
    <vehicle id="E_N_191" type="car" route="E_N" depart="191" departLane="random"/>
    <vehicle id="S_N_192" type="car" route="S_N" depart="192" departLane="random"/>
    <vehicle id="N_W_193" type="car" route="N_W" depart="193" departLane="random"/>
    <vehicle id="E_W_194" type="car" route="E_W" depart="194" departLane="random"/>
    <vehicle id="S_N_195" type="car" route="S_N" depart="195" departLane="random"/>
    <vehicle id="W_N_196" type="car" route="W_N" depart="196" departLane="random"/>
    <vehicle id="E_S_197" type="car" route="E_S" depart="197" departLane="random"/>
    <vehicle id="S_N_198" type="car" route="S_N" depart="198" departLane="random"/>
    <vehicle id="W_E_199" type="car" route="W_E" depart="199" departLane="random"/>
    <vehicle id="S_N_200" type="car" route="S_N" depart="200" departLane="random"/>
    <vehicle id="N_W_201" type="car" route="N_W" depart="201" departLane="random"/>
    <vehicle id="E_W_202" type="car" route="E_W" depart="202" departLane="random"/>
    <vehicle id="S_N_203" type="car" route="S_N" depart="203" departLane="random"/>
    <vehicle id="S_W_204" type="car" route="S_W" depart="204" departLane="random"/>
    <vehicle id="N_S_205" type="car" route="N_S" depart="205" departLane="random"/>
    <vehicle id="W_N_206" type="car" route="W_N" depart="206" departLane="random"/>
    <vehicle id="S_E_207" type="car" route="S_E" depart="207" departLane="random"/>
    <vehicle id="S_E_208" type="car" route="S_E" depart="208" departLane="random"/>
    <vehicle id="S_W_209" type="car" route="S_W" depart="209" departLane="random"/>
    <vehicle id="W_N_210" type="car" route="W_N" depart="210" departLane="random"/>
    <vehicle id="E_S_211" type="car" route="E_S" depart="211" departLane="random"/>
    <vehicle id="W_E_212" type="car" route="W_E" depart="212" departLane="random"/>
    <vehicle id="W_S_213" type="car" route="W_S" depart="213" departLane="random"/>
    <vehicle id="E_W_214" type="car" route="E_W" depart="214" departLane="random"/>
    <vehicle id="E_S_215" type="car" route="E_S" depart="215" departLane="random"/>
    <vehicle id="S_W_216" type="car" route="S_W" depart="216" departLane="random"/>
    <vehicle id="W_E_217" type="car" route="W_E" depart="217" departLane="random"/>
    <vehicle id="E_W_218" type="car" route="E_W" depart="218" departLane="random"/>
    <vehicle id="N_S_219" type="car" route="N_S" depart="219" departLane="random"/>
    <vehicle id="S_W_220" type="car" route="S_W" depart="220" departLane="random"/>
    <vehicle id="S_W_221" type="car" route="S_W" depart="221" departLane="random"/>
    <vehicle id="E_N_222" type="car" route="E_N" depart="222" departLane="random"/>
    <vehicle id="S_E_223" type="car" route="S_E" depart="223" departLane="random"/>
    <vehicle id="S_W_224" type="car" route="S_W" depart="224" departLane="random"/>
    <vehicle id="E_S_225" type="car" route="E_S" depart="225" departLane="random"/>
    <vehicle id="E_W_226" type="car" route="E_W" depart="226" departLane="random"/>
    <vehicle id="W_S_227" type="car" route="W_S" depart="227" departLane="random"/>
    <vehicle id="W_N_228" type="car" route="W_N" depart="228" departLane="random"/>
    <vehicle id="N_E_229" type="car" route="N_E" depart="229" departLane="random"/>
    <vehicle id="E_N_230" type="car" route="E_N" depart="230" departLane="random"/>
    <vehicle id="E_N_231" type="car" route="E_N" depart="231" departLane="random"/>
    <vehicle id="N_W_232" type="car" route="N_W" depart="232" departLane="random"/>
    <vehicle id="N_E_233" type="car" route="N_E" depart="233" departLane="random"/>
    <vehicle id="S_E_234" type="car" route="S_E" depart="234" departLane="random"/>
    <vehicle id="E_W_235" type="car" route="E_W" depart="235" departLane="random"/>
    <vehicle id="E_N_236" type="car" route="E_N" depart="236" departLane="random"/>
    <vehicle id="W_S_237" type="car" route="W_S" depart="237" departLane="random"/>
    <vehicle id="E_W_238" type="car" route="E_W" depart="238" departLane="random"/>
    <vehicle id="N_E_239" type="car" route="N_E" depart="239" departLane="random"/>
    <vehicle id="E_S_240" type="car" route="E_S" depart="240" departLane="random"/>
    <vehicle id="W_N_241" type="car" route="W_N" depart="241" departLane="random"/>
    <vehicle id="N_E_242" type="car" route="N_E" depart="242" departLane="random"/>
    <vehicle id="S_E_243" type="car" route="S_E" depart="243" departLane="random"/>
    <vehicle id="E_S_244" type="car" route="E_S" depart="244" departLane="random"/>
    <vehicle id="N_S_245" type="car" route="N_S" depart="245" departLane="random"/>
    <vehicle id="E_N_246" type="car" route="E_N" depart="246" departLane="random"/>
    <vehicle id="W_E_247" type="car" route="W_E" depart="247" departLane="random"/>
    <vehicle id="S_W_248" type="car" route="S_W" depart="248" departLane="random"/>
    <vehicle id="W_N_249" type="car" route="W_N" depart="249" departLane="random"/>
    <vehicle id="S_N_250" type="car" route="S_N" depart="250" departLane="random"/>
    <vehicle id="S_E_251" type="car" route="S_E" depart="251" departLane="random"/>
    <vehicle id="S_E_252" type="car" route="S_E" depart="252" departLane="random"/>
    <vehicle id="E_W_253" type="car" route="E_W" depart="253" departLane="random"/>
    <vehicle id="S_W_254" type="car" route="S_W" depart="254" departLane="random"/>
    <vehicle id="N_W_255" type="car" route="N_W" depart="255" departLane="random"/>
    <vehicle id="W_S_256" type="car" route="W_S" depart="256" departLane="random"/>
    <vehicle id="S_W_257" type="car" route="S_W" depart="257" departLane="random"/>
    <vehicle id="S_E_258" type="car" route="S_E" depart="258" departLane="random"/>
    <vehicle id="N_E_259" type="car" route="N_E" depart="259" departLane="random"/>
    <vehicle id="W_S_260" type="car" route="W_S" depart="260" departLane="random"/>
    <vehicle id="W_S_261" type="car" route="W_S" depart="261" departLane="random"/>
    <vehicle id="S_E_262" type="car" route="S_E" depart="262" departLane="random"/>
    <vehicle id="W_N_263" type="car" route="W_N" depart="263" departLane="random"/>
    <vehicle id="W_E_264" type="car" route="W_E" depart="264" departLane="random"/>
    <vehicle id="S_N_265" type="car" route="S_N" depart="265" departLane="random"/>
    <vehicle id="N_E_266" type="car" route="N_E" depart="266" departLane="random"/>
    <vehicle id="E_N_267" type="car" route="E_N" depart="267" departLane="random"/>
    <vehicle id="E_W_268" type="car" route="E_W" depart="268" departLane="random"/>
    <vehicle id="E_N_269" type="car" route="E_N" depart="269" departLane="random"/>
    <vehicle id="N_W_270" type="car" route="N_W" depart="270" departLane="random"/>
    <vehicle id="N_E_271" type="car" route="N_E" depart="271" departLane="random"/>
    <vehicle id="W_S_272" type="car" route="W_S" depart="272" departLane="random"/>
    <vehicle id="S_N_273" type="car" route="S_N" depart="273" departLane="random"/>
    <vehicle id="N_W_274" type="car" route="N_W" depart="274" departLane="random"/>
    <vehicle id="W_N_275" type="car" route="W_N" depart="275" departLane="random"/>
    <vehicle id="N_E_276" type="car" route="N_E" depart="276" departLane="random"/>
    <vehicle id="E_S_277" type="car" route="E_S" depart="277" departLane="random"/>
    <vehicle id="E_N_278" type="car" route="E_N" depart="278" departLane="random"/>
    <vehicle id="E_W_279" type="car" route="E_W" depart="279" departLane="random"/>
    <vehicle id="S_N_280" type="car" route="S_N" depart="280" departLane="random"/>
    <vehicle id="W_E_281" type="car" route="W_E" depart="281" departLane="random"/>
    <vehicle id="S_E_282" type="car" route="S_E" depart="282" departLane="random"/>
    <vehicle id="N_E_283" type="car" route="N_E" depart="283" departLane="random"/>
    <vehicle id="N_S_284" type="car" route="N_S" depart="284" departLane="random"/>
    <vehicle id="W_S_285" type="car" route="W_S" depart="285" departLane="random"/>
    <vehicle id="S_E_286" type="car" route="S_E" depart="286" departLane="random"/>
    <vehicle id="W_N_287" type="car" route="W_N" depart="287" departLane="random"/>
    <vehicle id="W_N_288" type="car" route="W_N" depart="288" departLane="random"/>
    <vehicle id="W_E_289" type="car" route="W_E" depart="289" departLane="random"/>
    <vehicle id="W_E_290" type="car" route="W_E" depart="290" departLane="random"/>
    <vehicle id="N_S_291" type="car" route="N_S" depart="291" departLane="random"/>
    <vehicle id="N_S_292" type="car" route="N_S" depart="292" departLane="random"/>
    <vehicle id="N_E_293" type="car" route="N_E" depart="293" departLane="random"/>
    <vehicle id="E_S_294" type="car" route="E_S" depart="294" departLane="random"/>
    <vehicle id="W_N_295" type="car" route="W_N" depart="295" departLane="random"/>
    <vehicle id="N_S_296" type="car" route="N_S" depart="296" departLane="random"/>
    <vehicle id="W_N_297" type="car" route="W_N" depart="297" departLane="random"/>
    <vehicle id="W_S_298" type="car" route="W_S" depart="298" departLane="random"/>
    <vehicle id="E_N_299" type="car" route="E_N" depart="299" departLane="random"/>
    <vehicle id="N_E_300" type="car" route="N_E" depart="300" departLane="random"/>
    <vehicle id="S_W_301" type="car" route="S_W" depart="301" departLane="random"/>
    <vehicle id="W_S_302" type="car" route="W_S" depart="302" departLane="random"/>
    <vehicle id="W_S_303" type="car" route="W_S" depart="303" departLane="random"/>
    <vehicle id="N_W_304" type="car" route="N_W" depart="304" departLane="random"/>
    <vehicle id="W_N_305" type="car" route="W_N" depart="305" departLane="random"/>
    <vehicle id="S_E_306" type="car" route="S_E" depart="306" departLane="random"/>
    <vehicle id="S_N_307" type="car" route="S_N" depart="307" departLane="random"/>
    <vehicle id="W_E_308" type="car" route="W_E" depart="308" departLane="random"/>
    <vehicle id="E_W_309" type="car" route="E_W" depart="309" departLane="random"/>
    <vehicle id="N_W_310" type="car" route="N_W" depart="310" departLane="random"/>
    <vehicle id="E_S_311" type="car" route="E_S" depart="311" departLane="random"/>
    <vehicle id="E_N_312" type="car" route="E_N" depart="312" departLane="random"/>
    <vehicle id="S_E_313" type="car" route="S_E" depart="313" departLane="random"/>
    <vehicle id="W_N_314" type="car" route="W_N" depart="314" departLane="random"/>
    <vehicle id="W_S_315" type="car" route="W_S" depart="315" departLane="random"/>
    <vehicle id="S_W_316" type="car" route="S_W" depart="316" departLane="random"/>
    <vehicle id="S_E_317" type="car" route="S_E" depart="317" departLane="random"/>
    <vehicle id="E_S_318" type="car" route="E_S" depart="318" departLane="random"/>
    <vehicle id="N_S_319" type="car" route="N_S" depart="319" departLane="random"/>
    <vehicle id="W_N_320" type="car" route="W_N" depart="320" departLane="random"/>
    <vehicle id="W_N_321" type="car" route="W_N" depart="321" departLane="random"/>
    <vehicle id="S_N_322" type="car" route="S_N" depart="322" departLane="random"/>
    <vehicle id="W_E_323" type="car" route="W_E" depart="323" departLane="random"/>
    <vehicle id="N_S_324" type="car" route="N_S" depart="324" departLane="random"/>
    <vehicle id="N_E_325" type="car" route="N_E" depart="325" departLane="random"/>
    <vehicle id="S_N_326" type="car" route="S_N" depart="326" departLane="random"/>
    <vehicle id="E_N_327" type="car" route="E_N" depart="327" departLane="random"/>
    <vehicle id="S_W_328" type="car" route="S_W" depart="328" departLane="random"/>
    <vehicle id="N_W_329" type="car" route="N_W" depart="329" departLane="random"/>
    <vehicle id="S_E_330" type="car" route="S_E" depart="330" departLane="random"/>
    <vehicle id="E_W_331" type="car" route="E_W" depart="331" departLane="random"/>
    <vehicle id="S_E_332" type="car" route="S_E" depart="332" departLane="random"/>
    <vehicle id="E_N_333" type="car" route="E_N" depart="333" departLane="random"/>
    <vehicle id="S_W_334" type="car" route="S_W" depart="334" departLane="random"/>
    <vehicle id="S_W_335" type="car" route="S_W" depart="335" departLane="random"/>
    <vehicle id="W_N_336" type="car" route="W_N" depart="336" departLane="random"/>
    <vehicle id="S_N_337" type="car" route="S_N" depart="337" departLane="random"/>
    <vehicle id="W_E_338" type="car" route="W_E" depart="338" departLane="random"/>
    <vehicle id="N_E_339" type="car" route="N_E" depart="339" departLane="random"/>
    <vehicle id="W_N_340" type="car" route="W_N" depart="340" departLane="random"/>
    <vehicle id="S_W_341" type="car" route="S_W" depart="341" departLane="random"/>
    <vehicle id="E_N_342" type="car" route="E_N" depart="342" departLane="random"/>
    <vehicle id="E_N_343" type="car" route="E_N" depart="343" departLane="random"/>
    <vehicle id="N_W_344" type="car" route="N_W" depart="344" departLane="random"/>
    <vehicle id="E_S_345" type="car" route="E_S" depart="345" departLane="random"/>
    <vehicle id="N_W_346" type="car" route="N_W" depart="346" departLane="random"/>
    <vehicle id="W_N_347" type="car" route="W_N" depart="347" departLane="random"/>
    <vehicle id="E_W_348" type="car" route="E_W" depart="348" departLane="random"/>
    <vehicle id="S_E_349" type="car" route="S_E" depart="349" departLane="random"/>
    <vehicle id="W_E_350" type="car" route="W_E" depart="350" departLane="random"/>