<routes>
            <vType id="car" accel="0.8" decel="4.5" sigma="0.5" length="5" minGap="2.5" maxSpeed="16.67" guiShape="passenger"/>
            
            <route id="right" edges="3i 1o" />
            <route id="left" edges="1i 3o" />
            <route id="down" edges="2i 4o" />
            <route id="up" edges="4i 2o" />
            
    <vehicle id="down_0" type="car" route="down" depart="0" />
    <vehicle id="up_1" type="car" route="up" depart="1" />
    <vehicle id="left_2" type="car" route="left" depart="2" />
    <vehicle id="right_3" type="car" route="right" depart="3" />
    <vehicle id="up_4" type="car" route="up" depart="4" />
    <vehicle id="right_5" type="car" route="right" depart="5" />
    <vehicle id="up_6" type="car" route="up" depart="6" />
    <vehicle id="down_7" type="car" route="down" depart="7" />
    <vehicle id="down_8" type="car" route="down" depart="8" />
    <vehicle id="left_9" type="car" route="left" depart="9" />
    <vehicle id="right_10" type="car" route="right" depart="10" />
    <vehicle id="left_11" type="car" route="left" depart="11" />
    <vehicle id="right_12" type="car" route="right" depart="12" />
    <vehicle id="up_13" type="car" route="up" depart="13" />
    <vehicle id="down_14" type="car" route="down" depart="14" />
    <vehicle id="right_15" type="car" route="right" depart="15" />
    <vehicle id="left_16" type="car" route="left" depart="16" />
    <vehicle id="up_17" type="car" route="up" depart="17" />
    <vehicle id="up_18" type="car" route="up" depart="18" />
    <vehicle id="down_19" type="car" route="down" depart="19" />
    <vehicle id="up_20" type="car" route="up" depart="20" />
    <vehicle id="down_21" type="car" route="down" depart="21" />
    <vehicle id="right_22" type="car" route="right" depart="22" />
    <vehicle id="left_23" type="car" route="left" depart="23" />
    <vehicle id="up_24" type="car" route="up" depart="24" />
    <vehicle id="right_25" type="car" route="right" depart="25" />
    <vehicle id="left_26" type="car" route="left" depart="26" />
    <vehicle id="left_27" type="car" route="left" depart="27" />
    <vehicle id="left_28" type="car" route="left" depart="28" />
    <vehicle id="up_29" type="car" route="up" depart="29" />
    <vehicle id="left_30" type="car" route="left" depart="30" />
    <vehicle id="up_31" type="car" route="up" depart="31" />
    <vehicle id="down_32" type="car" route="down" depart="32" />
    <vehicle id="left_33" type="car" route="left" depart="33" />
    <vehicle id="left_34" type="car" route="left" depart="34" />
    <vehicle id="left_35" type="car" route="left" depart="35" />
    <vehicle id="up_36" type="car" route="up" depart="36" />
    <vehicle id="right_37" type="car" route="right" depart="37" />
    <vehicle id="right_38" type="car" route="right" depart="38" />
    <vehicle id="down_39" type="car" route="down" depart="39" />
    <vehicle id="down_40" type="car" route="down" depart="40" />
    <vehicle id="right_41" type="car" route="right" depart="41" />
    <vehicle id="up_42" type="car" route="up" depart="42" />
    <vehicle id="right_43" type="car" route="right" depart="43" />
    <vehicle id="right_44" type="car" route="right" depart="44" />
    <vehicle id="right_45" type="car" route="right" depart="45" />
    <vehicle id="up_46" type="car" route="up" depart="46" />
    <vehicle id="right_47" type="car" route="right" depart="47" />
    <vehicle id="down_48" type="car" route="down" depart="48" />
    <vehicle id="up_49" type="car" route="up" depart="49" />
    <vehicle id="left_50" type="car" route="left" depart="50" />
    <vehicle id="down_51" type="car" route="down" depart="51" />
    <vehicle id="left_52" type="car" route="left" depart="52" />
    <vehicle id="left_53" type="car" route="left" depart="53" />
    <vehicle id="left_54" type="car" route="left" depart="54" />
    <vehicle id="left_55" type="car" route="left" depart="55" />
    <vehicle id="up_56" type="car" route="up" depart="56" />
    <vehicle id="left_57" type="car" route="left" depart="57" />
    <vehicle id="down_58" type="car" route="down" depart="58" />
    <vehicle id="down_59" type="car" route="down" depart="59" />
    <vehicle id="left_60" type="car" route="left" depart="60" />
    <vehicle id="left_61" type="car" route="left" depart="61" />
    <vehicle id="left_62" type="car" route="left" depart="62" />
    <vehicle id="left_63" type="car" route="left" depart="63" />
    <vehicle id="left_64" type="car" route="left" depart="64" />
    <vehicle id="up_65" type="car" route="up" depart="65" />
    <vehicle id="left_66" type="car" route="left" depart="66" />
    <vehicle id="right_67" type="car" route="right" depart="67" />
    <vehicle id="up_68" type="car" route="up" depart="68" />
    <vehicle id="up_69" type="car" route="up" depart="69" />
    <vehicle id="down_70" type="car" route="down" depart="70" />
    <vehicle id="left_71" type="car" route="left" depart="71" />
    <vehicle id="right_72" type="car" route="right" depart="72" />
    <vehicle id="down_73" type="car" route="down" depart="73" />
    <vehicle id="down_74" type="car" route="down" depart="74" />
    <vehicle id="left_75" type="car" route="left" depart="75" />
    <vehicle id="right_76" type="car" route="right" depart="76" />
    <vehicle id="down_77" type="car" route="down" depart="77" />
    <vehicle id="up_78" type="car" route="up" depart="78" />
    <vehicle id="up_79" type="car" route="up" depart="79" />
    <vehicle id="left_80" type="car" route="left" depart="80" />
    <vehicle id="down_81" type="car" route="down" depart="81" />
    <vehicle id="up_82" type="car" route="up" depart="82" />
    <vehicle id="right_83" type="car" route="right" depart="83" />
    <vehicle id="up_84" type="car" route="up" depart="84" />
    <vehicle id="up_85" type="car" route="up" depart="85" />
    <vehicle id="left_86" type="car" route="left" depart="86" />
    <vehicle id="down_87" type="car" route="down" depart="87" />
    <vehicle id="up_88" type="car" route="up" depart="88" />
    <vehicle id="up_89" type="car" route="up" depart="89" />
    <vehicle id="up_90" type="car" route="up" depart="90" />
    <vehicle id="right_91" type="car" route="right" depart="91" />
    <vehicle id="right_92" type="car" route="right" depart="92" />
    <vehicle id="down_93" type="car" route="down" depart="93" />
    <vehicle id="down_94" type="car" route="down" depart="94" />
    <vehicle id="down_95" type="car" route="down" depart="95" />
    <vehicle id="up_96" type="car" route="up" depart="96" />
    <vehicle id="up_97" type="car" route="up" depart="97" />
    <vehicle id="left_98" type="car" route="left" depart="98" />
    <vehicle id="down_99" type="car" route="down" depart="99" />
    <vehicle id="up_100" type="car" route="up" depart="100" />
    <vehicle id="down_101" type="car" route="down" depart="101" />
    <vehicle id="up_102" type="car" route="up" depart="102" />
    <vehicle id="up_103" type="car" route="up" depart="103" />
    <vehicle id="left_104" type="car" route="left" depart="104" />
    <vehicle id="up_105" type="car" route="up" depart="105" />
    <vehicle id="right_106" type="car" route="right" depart="106" />
    <vehicle id="right_107" type="car" route="right" depart="107" />
    <vehicle id="right_108" type="car" route="right" depart="108" />
    <vehicle id="down_109" type="car" route="down" depart="109" />
    <vehicle id="up_110" type="car" route="up" depart="110" />
    <vehicle id="up_111" type="car" route="up" depart="111" />
    <vehicle id="up_112" type="car" route="up" depart="112" />
    <vehicle id="up_113" type="car" route="up" depart="113" />
    <vehicle id="left_114" type="car" route="left" depart="114" />
    <vehicle id="left_115" type="car" route="left" depart="115" />
    <vehicle id="left_116" type="car" route="left" depart="116" />
    <vehicle id="left_117" type="car" route="left" depart="117" />
    <vehicle id="right_118" type="car" route="right" depart="118" />
    <vehicle id="up_119" type="car" route="up" depart="119" />
    <vehicle id="down_120" type="car" route="down" depart="120" />
    <vehicle id="left_121" type="car" route="left" depart="121" />
    <vehicle id="right_122" type="car" route="right" depart="122" />
    <vehicle id="up_123" type="car" route="up" depart="123" />
    <vehicle id="right_124" type="car" route="right" depart="124" />
    <vehicle id="up_125" type="car" route="up" depart="125" />
    <vehicle id="right_126" type="car" route="right" depart="126" />
    <vehicle id="down_127" type="car" route="down" depart="127" />
    <vehicle id="right_128" type="car" route="right" depart="128" />
    <vehicle id="left_129" type="car" route="left" depart="129" />
    <vehicle id="down_130" type="car" route="down" depart="130" />
    <vehicle id="right_131" type="car" route="right" depart="131" />
    <vehicle id="down_132" type="car" route="down" depart="132" />
    <vehicle id="right_133" type="car" route="right" depart="133" />
    <vehicle id="left_134" type="car" route="left" depart="134" />
    <vehicle id="down_135" type="car" route="down" depart="135" />
    <vehicle id="up_136" type="car" route="up" depart="136" />
    <vehicle id="right_137" type="car" route="right" depart="137" />
    <vehicle id="up_138" type="car" route="up" depart="138" />
    <vehicle id="up_139" type="car" route="up" depart="139" />
    <vehicle id="up_140" type="car" route="up" depart="140" />
    <vehicle id="down_141" type="car" route="down" depart="141" />
    <vehicle id="up_142" type="car" route="up" depart="142" />
    <vehicle id="right_143" type="car" route="right" depart="143" />
    <vehicle id="down_144" type="car" route="down" depart="144" />
    <vehicle id="down_145" type="car" route="down" depart="145" />
    <vehicle id="down_146" type="car" route="down" depart="146" />
    <vehicle id="right_147" type="car" route="right" depart="147" />
    <vehicle id="down_148" type="car" route="down" depart="148" />
    <vehicle id="up_149" type="car" route="up" depart="149" />
    <vehicle id="down_150" type="car" route="down" depart="150" />
    <vehicle id="left_151" type="car" route="left" depart="151" />
    <vehicle id="up_152" type="car" route="up" depart="152" />
    <vehicle id="left_153" type="car" route="left" depart="153" />
    <vehicle id="right_154" type="car" route="right" depart="154" />
    <vehicle id="up_155" type="car" route="up" depart="155" />
    <vehicle id="left_156" type="car" route="left" depart="156" />
    <vehicle id="up_157" type="car" route="up" depart="157" />
    <vehicle id="down_158" type="car" route="down" depart="158" />
    <vehicle id="down_159" type="car" route="down" depart="159" />
    <vehicle id="right_160" type="car" route="right" depart="160" />
    <vehicle id="left_161" type="car" route="left" depart="161" />
    <vehicle id="left_162" type="car" route="left" depart="162" />
    <vehicle id="right_163" type="car" route="right" depart="163" />
    <vehicle id="left_164" type="car" route="left" depart="164" />
    <vehicle id="up_165" type="car" route="up" depart="165" />
    <vehicle id="right_166" type="car" route="right" depart="166" />
    <vehicle id="left_167" type="car" route="left" depart="167" />
    <vehicle id="down_168" type="car" route="down" depart="168" />
    <vehicle id="up_169" type="car" route="up" depart="169" />
    <vehicle id="right_170" type="car" route="right" depart="170" />
    <vehicle id="right_171" type="car" route="right" depart="171" />
    <vehicle id="down_172" type="car" route="down" depart="172" />
    <vehicle id="up_173" type="car" route="up" depart="173" />
    <vehicle id="up_174" type="car" route="up" depart="174" />
    <vehicle id="right_175" type="car" route="right" depart="175" />
    <vehicle id="up_176" type="car" route="up" depart="176" />
    <vehicle id="right_177" type="car" route="right" depart="177" />
    <vehicle id="left_178" type="car" route="left" depart="178" />
    <vehicle id="down_179" type="car" route="down" depart="179" />
    <vehicle id="down_180" type="car" route="down" depart="180" />
    <vehicle id="down_181" type="car" route="down" depart="181" />
    <vehicle id="right_182" type="car" route="right" depart="182" />
    <vehicle id="left_183" type="car" route="left" depart="183" />
    <vehicle id="down_184" type="car" route="down" depart="184" />
    <vehicle id="down_185" type="car" route="down" depart="185" />
    <vehicle id="up_186" type="car" route="up" depart="186" />
    <vehicle id="left_187" type="car" route="left" depart="187" />
    <vehicle id="left_188" type="car" route="left" depart="188" />
    <vehicle id="down_189" type="car" route="down" depart="189" />
    <vehicle id="left_190" type="car" route="left" depart="190" />
    <vehicle id="down_191" type="car" route="down" depart="191" />
    <vehicle id="left_192" type="car" route="left" depart="192" />
    <vehicle id="right_193" type="car" route="right" depart="193" />
    <vehicle id="left_194" type="car" route="left" depart="194" />
    <vehicle id="up_195" type="car" route="up" depart="195" />
    <vehicle id="right_196" type="car" route="right" depart="196" />
    <vehicle id="left_197" type="car" route="left" depart="197" />
    <vehicle id="up_198" type="car" route="up" depart="198" />
    <vehicle id="left_199" type="car" route="left" depart="199" />
    <vehicle id="down_200" type="car" route="down" depart="200" />
    <vehicle id="down_201" type="car" route="down" depart="201" />
    <vehicle id="up_202" type="car" route="up" depart="202" />
    <vehicle id="left_203" type="car" route="left" depart="203" />
    <vehicle id="up_204" type="car" route="up" depart="204" />
    <vehicle id="left_205" type="car" route="left" depart="205" />
    <vehicle id="left_206" type="car" route="left" depart="206" />
    <vehicle id="down_207" type="car" route="down" depart="207" />
    <vehicle id="up_208" type="car" route="up" depart="208" />
    <vehicle id="left_209" type="car" route="left" depart="209" />
    <vehicle id="down_210" type="car" route="down" depart="210" />
    <vehicle id="right_211" type="car" route="right" depart="211" />
    <vehicle id="right_212" type="car" route="right" depart="212" />
    <vehicle id="up_213" type="car" route="up" depart="213" />
    <vehicle id="up_214" type="car" route="up" depart="214" />
    <vehicle id="up_215" type="car" route="up" depart="215" />
    <vehicle id="down_216" type="car" route="down" depart="216" />
    <vehicle id="up_217" type="car" route="up" depart="217" />
    <vehicle id="down_218" type="car" route="down" depart="218" />
    <vehicle id="down_219" type="car" route="down" depart="219" />
    <vehicle id="right_220" type="car" route="right" depart="220" />
    <vehicle id="left_221" type="car" route="left" depart="221" />
    <vehicle id="down_222" type="car" route="down" depart="222" />
    <vehicle id="up_223" type="car" route="up" depart="223" />
    <vehicle id="right_224" type="car" route="right" depart="224" />
    <vehicle id="left_225" type="car" route="left" depart="225" />
    <vehicle id="down_226" type="car" route="down" depart="226" />
    <vehicle id="right_227" type="car" route="right" depart="227" />
    <vehicle id="down_228" type="car" route="down" depart="228" />
    <vehicle id="right_229" type="car" route="right" depart="229" />
    <vehicle id="right_230" type="car" route="right" depart="230" />
    <vehicle id="up_231" type="car" route="up" depart="231" />
    <vehicle id="down_232" type="car" route="down" depart="232" />
    <vehicle id="down_233" type="car" route="down" depart="233" />
    <vehicle id="up_234" type="car" route="up" depart="234" />
    <vehicle id="right_235" type="car" route="right" depart="235" />
    <vehicle id="right_236" type="car" route="right" depart="236" />
    <vehicle id="up_237" type="car" route="up" depart="237" />
    <vehicle id="up_238" type="car" route="up" depart="238" />
    <vehicle id="left_239" type="car" route="left" depart="239" />
    <vehicle id="right_240" type="car" route="right" depart="240" />
    <vehicle id="up_241" type="car" route="up" depart="241" />
    <vehicle id="up_242" type="car" route="up" depart="242" />
    <vehicle id="left_243" type="car" route="left" depart="243" />
    <vehicle id="right_244" type="car" route="right" depart="244" />
    <vehicle id="up_245" type="car" route="up" depart="245" />
    <vehicle id="down_246" type="car" route="down" depart="246" />
    <vehicle id="left_247" type="car" route="left" depart="247" />
    <vehicle id="right_248" type="car" route="right" depart="248" />
    <vehicle id="right_249" type="car" route="right" depart="249" />
    <vehicle id="left_250" type="car" route="left" depart="250" />
    <vehicle id="down_251" type="car" route="down" depart="251" />
    <vehicle id="down_252" type="car" route="down" depart="252" />
    <vehicle id="left_253" type="car" route="left" depart="253" />
    <vehicle id="down_254" type="car" route="down" depart="254" />
    <vehicle id="left_255" type="car" route="left" depart="255" />
    <vehicle id="down_256" type="car" route="down" depart="256" />
    <vehicle id="up_257" type="car" route="up" depart="257" />
    <vehicle id="right_258" type="car" route="right" depart="258" />
    <vehicle id="down_259" type="car" route="down" depart="259" />
    <vehicle id="left_260" type="car" route="left" depart="260" />
    <vehicle id="up_261" type="car" route="up" depart="261" />
    <vehicle id="right_262" type="car" route="right" depart="262" />
    <vehicle id="down_263" type="car" route="down" depart="263" />
    <vehicle id="right_264" type="car" route="right" depart="264" />
    <vehicle id="left_265" type="car" route="left" depart="265" />
    <vehicle id="right_266" type="car" route="right" depart="266" />
    <vehicle id="down_267" type="car" route="down" depart="267" />
    <vehicle id="down_268" type="car" route="down" depart="268" />
    <vehicle id="right_269" type="car" route="right" depart="269" />
    <vehicle id="down_270" type="car" route="down" depart="270" />
    <vehicle id="down_271" type="car" route="down" depart="271" />
    <vehicle id="up_272" type="car" route="up" depart="272" />
    <vehicle id="right_273" type="car" route="right" depart="273" />
    <vehicle id="down_274" type="car" route="down" depart="274" />
    <vehicle id="down_275" type="car" route="down" depart="275" />
    <vehicle id="up_276" type="car" route="up" depart="276" />
    <vehicle id="left_277" type="car" route="left" depart="277" />
    <vehicle id="right_278" type="car" route="right" depart="278" />
    <vehicle id="left_279" type="car" route="left" depart="279" />
    <vehicle id="up_280" type="car" route="up" depart="280" />
    <vehicle id="down_281" type="car" route="down" depart="281" />
    <vehicle id="up_282" type="car" route="up" depart="282" />
    <vehicle id="right_283" type="car" route="right" depart="283" />
    <vehicle id="down_284" type="car" route="down" depart="284" />
    <vehicle id="right_285" type="car" route="right" depart="285" />
    <vehicle id="left_286" type="car" route="left" depart="286" />
    <vehicle id="up_287" type="car" route="up" depart="287" />
    <vehicle id="down_288" type="car" route="down" depart="288" />
    <vehicle id="left_289" type="car" route="left" depart="289" />
    <vehicle id="down_290" type="car" route="down" depart="290" />
    <vehicle id="right_291" type="car" route="right" depart="291" />
    <vehicle id="down_292" type="car" route="down" depart="292" />
    <vehicle id="up_293" type="car" route="up" depart="293" />
    <vehicle id="left_294" type="car" route="left" depart="294" />
    <vehicle id="down_295" type="car" route="down" depart="295" />
    <vehicle id="right_296" type="car" route="right" depart="296" />
    <vehicle id="up_297" type="car" route="up" depart="297" />
    <vehicle id="right_298" type="car" route="right" depart="298" />
    <vehicle id="up_299" type="car" route="up" depart="299" />
    <vehicle id="left_300" type="car" route="left" depart="300" />
    <vehicle id="up_301" type="car" route="up" depart="301" />
    <vehicle id="right_302" type="car" route="right" depart="302" />
    <vehicle id="right_303" type="car" route="right" depart="303" />
    <vehicle id="down_304" type="car" route="down" depart="304" />
    <vehicle id="right_305" type="car" route="right" depart="305" />
    <vehicle id="left_306" type="car" route="left" depart="306" />
    <vehicle id="right_307" type="car" route="right" depart="307" />
    <vehicle id="down_308" type="car" route="down" depart="308" />
    <vehicle id="up_309" type="car" route="up" depart="309" />
    <vehicle id="left_310" type="car" route="left" depart="310" />
    <vehicle id="down_311" type="car" route="down" depart="311" />
    <vehicle id="left_312" type="car" route="left" depart="312" />
    <vehicle id="down_313" type="car" route="down" depart="313" />
    <vehicle id="left_314" type="car" route="left" depart="314" />
    <vehicle id="right_315" type="car" route="right" depart="315" />
    <vehicle id="down_316" type="car" route="down" depart="316" />
    <vehicle id="left_317" type="car" route="left" depart="317" />
    <vehicle id="down_318" type="car" route="down" depart="318" />
    <vehicle id="down_319" type="car" route="down" depart="319" />
    <vehicle id="left_320" type="car" route="left" depart="320" />
    <vehicle id="up_321" type="car" route="up" depart="321" />
    <vehicle id="left_322" type="car" route="left" depart="322" />
    <vehicle id="right_323" type="car" route="right" depart="323" />
    <vehicle id="up_324" type="car" route="up" depart="324" />
    <vehicle id="left_325" type="car" route="left" depart="325" />
    <vehicle id="right_326" type="car" route="right" depart="326" />
    <vehicle id="right_327" type="car" route="right" depart="327" />
    <vehicle id="up_328" type="car" route="up" depart="328" />
    <vehicle id="right_329" type="car" route="right" depart="329" />
    <vehicle id="left_330" type="car" route="left" depart="330" />
    <vehicle id="right_331" type="car" route="right" depart="331" />
    <vehicle id="up_332" type="car" route="up" depart="332" />
    <vehicle id="left_333" type="car" route="left" depart="333" />
    <vehicle id="up_334" type="car" route="up" depart="334" />
    <vehicle id="right_335" type="car" route="right" depart="335" />
    <vehicle id="down_336" type="car" route="down" depart="336" />
    <vehicle id="down_337" type="car" route="down" depart="337" />
    <vehicle id="down_338" type="car" route="down" depart="338" />
    <vehicle id="left_339" type="car" route="left" depart="339" />
    <vehicle id="up_340" type="car" route="up" depart="340" />
    <vehicle id="left_341" type="car" route="left" depart="341" />
    <vehicle id="up_342" type="car" route="up" depart="342" />
    <vehicle id="right_343" type="car" route="right" depart="343" />
    <vehicle id="left_344" type="car" route="left" depart="344" />
    <vehicle id="up_345" type="car" route="up" depart="345" />
    <vehicle id="down_346" type="car" route="down" depart="346" />
    <vehicle id="down_347" type="car" route="down" depart="347" />
    <vehicle id="down_348" type="car" route="down" depart="348" />
    <vehicle id="down_349" type="car" route="down" depart="349" />
    <vehicle id="up_350" type="car" route="up" depart="350" />
    <vehicle id="up_351" type="car" route="up" depart="351" />
    <vehicle id="left_352" type="car" route="left" depart="352" />
    <vehicle id="down_353" type="car" route="down" depart="353" />
    <vehicle id="left_354" type="car" route="left" depart="354" />
    <vehicle id="down_355" type="car" route="down" depart="355" />
    <vehicle id="left_356" type="car" route="left" depart="356" />
    <vehicle id="right_357" type="car" route="right" depart="357" />
    <vehicle id="right_358" type="car" route="right" depart="358" />
    <vehicle id="right_359" type="car" route="right" depart="359" />
    <vehicle id="up_360" type="car" route="up" depart="360" />
    <vehicle id="left_361" type="car" route="left" depart="361" />
    <vehicle id="up_362" type="car" route="up" depart="362" />
    <vehicle id="right_363" type="car" route="right" depart="363" />
    <vehicle id="left_364" type="car" route="left" depart="364" />
    <vehicle id="right_365" type="car" route="right" depart="365" />
    <vehicle id="right_366" type="car" route="right" depart="366" />
    <vehicle id="up_367" type="car" route="up" depart="367" />
    <vehicle id="down_368" type="car" route="down" depart="368" />
    <vehicle id="right_369" type="car" route="right" depart="369" />
    <vehicle id="right_370" type="car" route="right" depart="370" />
    <vehicle id="left_371" type="car" route="left" depart="371" />
    <vehicle id="up_372" type="car" route="up" depart="372" />
    <vehicle id="left_373" type="car" route="left" depart="373" />
    <vehicle id="right_374" type="car" route="right" depart="374" />
    <vehicle id="up_375" type="car" route="up" depart="375" />
    <vehicle id="down_376" type="car" route="down" depart="376" />
    <vehicle id="up_377" type="car" route="up" depart="377" />
    <vehicle id="up_378" type="car" route="up" depart="378" />
    <vehicle id="left_379" type="car" route="left" depart="379" />
    <vehicle id="left_380" type="car" route="left" depart="380" />
    <vehicle id="up_381" type="car" route="up" depart="381" />
    <vehicle id="right_382" type="car" route="right" depart="382" />
    <vehicle id="down_383" type="car" route="down" depart="383" />
    <vehicle id="down_384" type="car" route="down" depart="384" />
    <vehicle id="down_385" type="car" route="down" depart="385" />
    <vehicle id="right_386" type="car" route="right" depart="386" />
    <vehicle id="left_387" type="car" route="left" depart="387" />
    <vehicle id="down_388" type="car" route="down" depart="388" />
    <vehicle id="up_389" type="car" route="up" depart="389" />
    <vehicle id="up_390" type="car" route="up" depart="390" />
    <vehicle id="right_391" type="car" route="right" depart="391" />
    <vehicle id="down_392" type="car" route="down" depart="392" />
    <vehicle id="right_393" type="car" route="right" depart="393" />
    <vehicle id="left_394" type="car" route="left" depart="394" />
    <vehicle id="right_395" type="car" route="right" depart="395" />
    <vehicle id="down_396" type="car" route="down" depart="396" />
    <vehicle id="down_397" type="car" route="down" depart="397" />
    <vehicle id="up_398" type="car" route="up" depart="398" />
    <vehicle id="right_399" type="car" route="right" depart="399" />
    <vehicle id="up_400" type="car" route="up" depart="400" />
    <vehicle id="left_401" type="car" route="left" depart="401" />
    <vehicle id="up_402" type="car" route="up" depart="402" />
    <vehicle id="left_403" type="car" route="left" depart="403" />
    <vehicle id="down_404" type="car" route="down" depart="404" />
    <vehicle id="right_405" type="car" route="right" depart="405" />
    <vehicle id="left_406" type="car" route="left" depart="406" />
    <vehicle id="down_407" type="car" route="down" depart="407" />
    <vehicle id="up_408" type="car" route="up" depart="408" />
    <vehicle id="down_409" type="car" route="down" depart="409" />
    <vehicle id="right_410" type="car" route="right" depart="410" />
    <vehicle id="left_411" type="car" route="left" depart="411" />
    <vehicle id="down_412" type="car" route="down" depart="412" />
    <vehicle id="up_413" type="car" route="up" depart="413" />
    <vehicle id="left_414" type="car" route="left" depart="414" />
    <vehicle id="down_415" type="car" route="down" depart="415" />
    <vehicle id="right_416" type="car" route="right" depart="416" />
    <vehicle id="right_417" type="car" route="right" depart="417" />
    <vehicle id="left_418" type="car" route="left" depart="418" />
    <vehicle id="right_419" type="car" route="right" depart="419" />
    <vehicle id="up_420" type="car" route="up" depart="420" />
    <vehicle id="right_421" type="car" route="right" depart="421" />
    <vehicle id="down_422" type="car" route="down" depart="422" />
    <vehicle id="left_423" type="car" route="left" depart="423" />
    <vehicle id="up_424" type="car" route="up" depart="424" />
    <vehicle id="right_425" type="car" route="right" depart="425" />
    <vehicle id="right_426" type="car" route="right" depart="426" />
    <vehicle id="right_427" type="car" route="right" depart="427" />
    <vehicle id="left_428" type="car" route="left" depart="428" />
    <vehicle id="right_429" type="car" route="right" depart="429" />
    <vehicle id="right_430" type="car" route="right" depart="430" />
    <vehicle id="down_431" type="car" route="down" depart="431" />
    <vehicle id="left_432" type="car" route="left" depart="432" />
    <vehicle id="right_433" type="car" route="right" depart="433" />
    <vehicle id="up_434" type="car" route="up" depart="434" />
    <vehicle id="up_435" type="car" route="up" depart="435" />
    <vehicle id="up_436" type="car" route="up" depart="436" />
    <vehicle id="left_437" type="car" route="left" depart="437" />
    <vehicle id="left_438" type="car" route="left" depart="438" />
    <vehicle id="down_439" type="car" route="down" depart="439" />
    <vehicle id="left_440" type="car" route="left" depart="440" />
    <vehicle id="left_441" type="car" route="left" depart="441" />
    <vehicle id="right_442" type="car" route="right" depart="442" />
    <vehicle id="up_443" type="car" route="up" depart="443" />
    <vehicle id="down_444" type="car" route="down" depart="444" />
    <vehicle id="up_445" type="car" route="up" depart="445" />
    <vehicle id="right_446" type="car" route="right" depart="446" />
    <vehicle id="left_447" type="car" route="left" depart="447" />
    <vehicle id="left_448" type="car" route="left" depart="448" />