<?xml version="1.0" encoding="UTF-8"?>

<!-- generated on 2021-12-01 18:11:04 by Eclipse SUMO netedit Version 1.10.0
<configuration xmlns:xsi="http://www.w3.org/2001/XMLSchema-instance" xsi:noNamespaceSchemaLocation="http://sumo.dlr.de/xsd/netconvertConfiguration.xsd">
    <input>
        <sumo-net-file value="C:\Users\mateu\Documents\studia\7semestr\studio_projektowe\source\training\intersection\my_net.net.xml"/>
    </input>
    <output>
        <output-file value="C:\Users\mateu\Documents\studia\7semestr\studio_projektowe\source\training\intersection\my_net.net.xml"/>
    </output>
    <processing>
        <geometry.min-radius.fix.railways value="false"/>
        <geometry.max-grade.fix value="false"/>
        <offset.disable-normalization value="true"/>
        <lefthand value="false"/>
    </processing>
    <junctions>
        <no-turnarounds value="true"/>
        <junctions.corner-detail value="5"/>
        <junctions.limit-turn-speed value="5.5"/>
        <rectangular-lane-cut value="false"/>
    </junctions>
    <pedestrian>
        <walkingareas value="false"/>
    </pedestrian>
    <report>
        <aggregate-warnings value="5"/>
    </report>
</configuration>
-->

<net version="1.9" junctionCornerDetail="5" limitTurnSpeed="5.50" xmlns:xsi="http://www.w3.org/2001/XMLSchema-instance" xsi:noNamespaceSchemaLocation="http://sumo.dlr.de/xsd/net_file.xsd">

    <location netOffset="0.00,0.00" convBoundary="-200.00,-200.00,200.00,200.00" origBoundary="-10000000000.00,-10000000000.00,10000000000.00,10000000000.00" projParameter="!"/>

    <edge id=":0_0" function="internal">
        <lane id=":0_0_0" index="0" speed="6.51" length="9.03" shape="-11.20,16.80 -11.55,14.35 -12.60,12.60 -14.35,11.55 -16.80,11.20"/>
    </edge>
    <edge id=":0_1" function="internal">
        <lane id=":0_1_0" index="0" speed="13.89" length="33.60" shape="-11.20,16.80 -11.20,-16.80"/>
        <lane id=":0_1_1" index="1" speed="13.89" length="33.60" shape="-8.00,16.80 -8.00,-16.80"/>
        <lane id=":0_1_2" index="2" speed="13.89" length="33.60" shape="-4.80,16.80 -4.80,-16.80"/>
    </edge>
    <edge id=":0_4" function="internal">
        <lane id=":0_4_0" index="0" speed="11.36" length="29.67" shape="-1.60,16.80 -0.45,8.75 3.00,3.00 8.75,-0.45 16.80,-1.60"/>
    </edge>
    <edge id=":0_5" function="internal">
        <lane id=":0_5_0" index="0" speed="6.51" length="9.03" shape="16.80,11.20 14.35,11.55 12.60,12.60 11.55,14.35 11.20,16.80"/>
    </edge>
    <edge id=":0_6" function="internal">
        <lane id=":0_6_0" index="0" speed="13.89" length="33.60" shape="16.80,11.20 -16.80,11.20"/>
        <lane id=":0_6_1" index="1" speed="13.89" length="33.60" shape="16.80,8.00 -16.80,8.00"/>
        <lane id=":0_6_2" index="2" speed="13.89" length="33.60" shape="16.80,4.80 -16.80,4.80"/>
    </edge>
    <edge id=":0_9" function="internal">
        <lane id=":0_9_0" index="0" speed="11.36" length="29.67" shape="16.80,1.60 8.75,0.45 3.00,-3.00 -0.45,-8.75 -1.60,-16.80"/>
    </edge>
    <edge id=":0_10" function="internal">
        <lane id=":0_10_0" index="0" speed="6.51" length="9.03" shape="11.20,-16.80 11.55,-14.35 12.60,-12.60 14.35,-11.55 16.80,-11.20"/>
    </edge>
    <edge id=":0_11" function="internal">
        <lane id=":0_11_0" index="0" speed="13.89" length="33.60" shape="11.20,-16.80 11.20,16.80"/>
        <lane id=":0_11_1" index="1" speed="13.89" length="33.60" shape="8.00,-16.80 8.00,16.80"/>
        <lane id=":0_11_2" index="2" speed="13.89" length="33.60" shape="4.80,-16.80 4.80,16.80"/>
    </edge>
    <edge id=":0_14" function="internal">
        <lane id=":0_14_0" index="0" speed="11.36" length="29.67" shape="1.60,-16.80 0.45,-8.75 -3.00,-3.00 -8.75,0.45 -16.80,1.60"/>
    </edge>
    <edge id=":0_15" function="internal">
        <lane id=":0_15_0" index="0" speed="6.51" length="9.03" shape="-16.80,-11.20 -14.35,-11.55 -12.60,-12.60 -11.55,-14.35 -11.20,-16.80"/>
    </edge>
    <edge id=":0_16" function="internal">
        <lane id=":0_16_0" index="0" speed="13.89" length="33.60" shape="-16.80,-11.20 16.80,-11.20"/>
        <lane id=":0_16_1" index="1" speed="13.89" length="33.60" shape="-16.80,-8.00 16.80,-8.00"/>
        <lane id=":0_16_2" index="2" speed="13.89" length="33.60" shape="-16.80,-4.80 16.80,-4.80"/>
    </edge>
    <edge id=":0_19" function="internal">
        <lane id=":0_19_0" index="0" speed="11.36" length="29.67" shape="-16.80,-1.60 -8.75,-0.45 -3.00,3.00 0.45,8.75 1.60,16.80"/>
    </edge>

    <edge id="1i" from="1" to="0" priority="-1">
        <lane id="1i_0" index="0" speed="13.89" length="183.20" shape="200.00,11.20 16.80,11.20"/>
        <lane id="1i_1" index="1" speed="13.89" length="183.20" shape="200.00,8.00 16.80,8.00"/>
        <lane id="1i_2" index="2" speed="13.89" length="183.20" shape="200.00,4.80 16.80,4.80"/>
        <lane id="1i_3" index="3" speed="13.89" length="183.20" shape="200.00,1.60 16.80,1.60"/>
    </edge>
    <edge id="1o" from="0" to="1" priority="-1">
        <lane id="1o_0" index="0" speed="13.89" length="183.20" shape="16.80,-11.20 200.00,-11.20"/>
        <lane id="1o_1" index="1" speed="13.89" length="183.20" shape="16.80,-8.00 200.00,-8.00"/>
        <lane id="1o_2" index="2" speed="13.89" length="183.20" shape="16.80,-4.80 200.00,-4.80"/>
        <lane id="1o_3" index="3" speed="13.89" length="183.20" shape="16.80,-1.60 200.00,-1.60"/>
    </edge>
    <edge id="2i" from="2" to="0" priority="-1">
        <lane id="2i_0" index="0" speed="13.89" length="183.20" shape="-11.20,200.00 -11.20,16.80"/>
        <lane id="2i_1" index="1" speed="13.89" length="183.20" shape="-8.00,200.00 -8.00,16.80"/>
        <lane id="2i_2" index="2" speed="13.89" length="183.20" shape="-4.80,200.00 -4.80,16.80"/>
        <lane id="2i_3" index="3" speed="13.89" length="183.20" shape="-1.60,200.00 -1.60,16.80"/>
    </edge>
    <edge id="2o" from="0" to="2" priority="-1">
        <lane id="2o_0" index="0" speed="13.89" length="183.20" shape="11.20,16.80 11.20,200.00"/>
        <lane id="2o_1" index="1" speed="13.89" length="183.20" shape="8.00,16.80 8.00,200.00"/>
        <lane id="2o_2" index="2" speed="13.89" length="183.20" shape="4.80,16.80 4.80,200.00"/>
        <lane id="2o_3" index="3" speed="13.89" length="183.20" shape="1.60,16.80 1.60,200.00"/>
    </edge>
    <edge id="3i" from="3" to="0" priority="-1">
        <lane id="3i_0" index="0" speed="13.89" length="183.20" shape="-200.00,-11.20 -16.80,-11.20"/>
        <lane id="3i_1" index="1" speed="13.89" length="183.20" shape="-200.00,-8.00 -16.80,-8.00"/>
        <lane id="3i_2" index="2" speed="13.89" length="183.20" shape="-200.00,-4.80 -16.80,-4.80"/>
        <lane id="3i_3" index="3" speed="13.89" length="183.20" shape="-200.00,-1.60 -16.80,-1.60"/>
    </edge>
    <edge id="3o" from="0" to="3" priority="-1">
        <lane id="3o_0" index="0" speed="13.89" length="183.20" shape="-16.80,11.20 -200.00,11.20"/>
        <lane id="3o_1" index="1" speed="13.89" length="183.20" shape="-16.80,8.00 -200.00,8.00"/>
        <lane id="3o_2" index="2" speed="13.89" length="183.20" shape="-16.80,4.80 -200.00,4.80"/>
        <lane id="3o_3" index="3" speed="13.89" length="183.20" shape="-16.80,1.60 -200.00,1.60"/>
    </edge>
    <edge id="4i" from="4" to="0" priority="-1">
        <lane id="4i_0" index="0" speed="13.89" length="183.20" shape="11.20,-200.00 11.20,-16.80"/>
        <lane id="4i_1" index="1" speed="13.89" length="183.20" shape="8.00,-200.00 8.00,-16.80"/>
        <lane id="4i_2" index="2" speed="13.89" length="183.20" shape="4.80,-200.00 4.80,-16.80"/>
        <lane id="4i_3" index="3" speed="13.89" length="183.20" shape="1.60,-200.00 1.60,-16.80"/>
    </edge>
    <edge id="4o" from="0" to="4" priority="-1">
        <lane id="4o_0" index="0" speed="13.89" length="183.20" shape="-11.20,-16.80 -11.20,-200.00"/>
        <lane id="4o_1" index="1" speed="13.89" length="183.20" shape="-8.00,-16.80 -8.00,-200.00"/>
        <lane id="4o_2" index="2" speed="13.89" length="183.20" shape="-4.80,-16.80 -4.80,-200.00"/>
        <lane id="4o_3" index="3" speed="13.89" length="183.20" shape="-1.60,-16.80 -1.60,-200.00"/>
    </edge>

    <tlLogic id="0" type="static" programID="0" offset="0">
        <phase duration="100" state="GGGGrrrrrrGGGGrrrrrr"/>
        <phase duration="100" state="yyyyrrrrrryyyyrrrrrr"/>
        <phase duration="100" state="rrrrGrrrrrrrrrGrrrrr"/>
        <phase duration="100" state="rrrryrrrrrrrrryrrrrr"/>
        <phase duration="100" state="rrrrrGGGGrrrrrrGGGGr"/>
        <phase duration="100" state="rrrrryyyyrrrrrryyyyr"/>
        <phase duration="100" state="rrrrrrrrrGrrrrrrrrrG"/>
        <phase duration="100" state="rrrrrrrrryrrrrrrrrry"/>
    </tlLogic>

    <junction id="0" type="traffic_light" x="0.00" y="0.00" incLanes="2i_0 2i_1 2i_2 2i_3 1i_0 1i_1 1i_2 1i_3 4i_0 4i_1 4i_2 4i_3 3i_0 3i_1 3i_2 3i_3" intLanes=":0_0_0 :0_1_0 :0_1_1 :0_1_2 :0_4_0 :0_5_0 :0_6_0 :0_6_1 :0_6_2 :0_9_0 :0_10_0 :0_11_0 :0_11_1 :0_11_2 :0_14_0 :0_15_0 :0_16_0 :0_16_1 :0_16_2 :0_19_0" shape="-12.80,16.80 12.80,16.80 13.24,14.58 13.80,13.80 14.58,13.24 15.58,12.91 16.80,12.80 16.80,-12.80 14.58,-13.24 13.80,-13.80 13.24,-14.58 12.91,-15.58 12.80,-16.80 -12.80,-16.80 -13.24,-14.58 -13.80,-13.80 -14.58,-13.24 -15.58,-12.91 -16.80,-12.80 -16.80,12.80 -14.58,13.24 -13.80,13.80 -13.24,14.58 -12.91,15.58">
        <request index="0"  response="00000000000000000000" foes="00000000000111000000" cont="0"/>
        <request index="1"  response="00000000000000000000" foes="11111100000111000000" cont="0"/>
        <request index="2"  response="00000000000000000000" foes="11111100000111000000" cont="0"/>
        <request index="3"  response="00000000000000000000" foes="11111100000111000000" cont="0"/>
        <request index="4"  response="00000011100000000000" foes="10000011101111000000" cont="0"/>
        <request index="5"  response="00000011100000000000" foes="00000011100000000000" cont="0"/>
        <request index="6"  response="00000011100000011111" foes="10000011100000011111" cont="0"/>
        <request index="7"  response="00000011100000011111" foes="10000011100000011111" cont="0"/>
        <request index="8"  response="00000011100000011111" foes="10000011100000011111" cont="0"/>
        <request index="9"  response="01110111100000010000" foes="01110111100000010000" cont="0"/>
        <request index="10" response="00000000000000000000" foes="01110000000000000000" cont="0"/>
        <request index="11" response="00000000000000000000" foes="01110000001111110000" cont="0"/>
        <request index="12" response="00000000000000000000" foes="01110000001111110000" cont="0"/>
        <request index="13" response="00000000000000000000" foes="01110000001111110000" cont="0"/>
        <request index="14" response="00000000000000001110" foes="11110000001000001110" cont="0"/>
        <request index="15" response="00000000000000001110" foes="00000000000000001110" cont="0"/>
        <request index="16" response="00000111110000001110" foes="00000111111000001110" cont="0"/>
        <request index="17" response="00000111110000001110" foes="00000111111000001110" cont="0"/>
        <request index="18" response="00000111110000001110" foes="00000111111000001110" cont="0"/>
        <request index="19" response="00000100000111011110" foes="00000100000111011110" cont="0"/>
    </junction>
    <junction id="1" type="dead_end" x="200.00" y="0.00" incLanes="1o_0 1o_1 1o_2 1o_3" intLanes="" shape="200.00,0.00 200.00,-12.80 200.00,0.00"/>
    <junction id="2" type="dead_end" x="0.00" y="200.00" incLanes="2o_0 2o_1 2o_2 2o_3" intLanes="" shape="0.00,200.00 12.80,200.00 0.00,200.00"/>
    <junction id="3" type="dead_end" x="-200.00" y="0.00" incLanes="3o_0 3o_1 3o_2 3o_3" intLanes="" shape="-200.00,0.00 -200.00,12.80 -200.00,0.00"/>
    <junction id="4" type="dead_end" x="0.00" y="-200.00" incLanes="4o_0 4o_1 4o_2 4o_3" intLanes="" shape="0.00,-200.00 -12.80,-200.00 0.00,-200.00"/>

    <connection from="1i" to="2o" fromLane="0" toLane="0" via=":0_5_0" tl="0" linkIndex="5" dir="r" state="o"/>
    <connection from="1i" to="3o" fromLane="0" toLane="0" via=":0_6_0" tl="0" linkIndex="6" dir="s" state="o"/>
    <connection from="1i" to="3o" fromLane="1" toLane="1" via=":0_6_1" tl="0" linkIndex="7" dir="s" state="o"/>
    <connection from="1i" to="3o" fromLane="2" toLane="2" via=":0_6_2" tl="0" linkIndex="8" dir="s" state="o"/>
    <connection from="1i" to="4o" fromLane="3" toLane="3" via=":0_9_0" tl="0" linkIndex="9" dir="l" state="o"/>
    <connection from="2i" to="3o" fromLane="0" toLane="0" via=":0_0_0" tl="0" linkIndex="0" dir="r" state="O"/>
    <connection from="2i" to="4o" fromLane="0" toLane="0" via=":0_1_0" tl="0" linkIndex="1" dir="s" state="O"/>
    <connection from="2i" to="4o" fromLane="1" toLane="1" via=":0_1_1" tl="0" linkIndex="2" dir="s" state="O"/>
    <connection from="2i" to="4o" fromLane="2" toLane="2" via=":0_1_2" tl="0" linkIndex="3" dir="s" state="O"/>
    <connection from="2i" to="1o" fromLane="3" toLane="3" via=":0_4_0" tl="0" linkIndex="4" dir="l" state="o"/>
    <connection from="3i" to="4o" fromLane="0" toLane="0" via=":0_15_0" tl="0" linkIndex="15" dir="r" state="o"/>
    <connection from="3i" to="1o" fromLane="0" toLane="0" via=":0_16_0" tl="0" linkIndex="16" dir="s" state="o"/>
    <connection from="3i" to="1o" fromLane="1" toLane="1" via=":0_16_1" tl="0" linkIndex="17" dir="s" state="o"/>
    <connection from="3i" to="1o" fromLane="2" toLane="2" via=":0_16_2" tl="0" linkIndex="18" dir="s" state="o"/>
    <connection from="3i" to="2o" fromLane="3" toLane="3" via=":0_19_0" tl="0" linkIndex="19" dir="l" state="o"/>
    <connection from="4i" to="1o" fromLane="0" toLane="0" via=":0_10_0" tl="0" linkIndex="10" dir="r" state="O"/>
    <connection from="4i" to="2o" fromLane="0" toLane="0" via=":0_11_0" tl="0" linkIndex="11" dir="s" state="O"/>
    <connection from="4i" to="2o" fromLane="1" toLane="1" via=":0_11_1" tl="0" linkIndex="12" dir="s" state="O"/>
    <connection from="4i" to="2o" fromLane="2" toLane="2" via=":0_11_2" tl="0" linkIndex="13" dir="s" state="O"/>
    <connection from="4i" to="3o" fromLane="3" toLane="3" via=":0_14_0" tl="0" linkIndex="14" dir="l" state="o"/>

    <connection from=":0_0" to="3o" fromLane="0" toLane="0" dir="r" state="M"/>
    <connection from=":0_1" to="4o" fromLane="0" toLane="0" dir="s" state="M"/>
    <connection from=":0_1" to="4o" fromLane="1" toLane="1" dir="s" state="M"/>
    <connection from=":0_1" to="4o" fromLane="2" toLane="2" dir="s" state="M"/>
    <connection from=":0_4" to="1o" fromLane="0" toLane="3" dir="l" state="M"/>
    <connection from=":0_5" to="2o" fromLane="0" toLane="0" dir="r" state="M"/>
    <connection from=":0_6" to="3o" fromLane="0" toLane="0" dir="s" state="M"/>
    <connection from=":0_6" to="3o" fromLane="1" toLane="1" dir="s" state="M"/>
    <connection from=":0_6" to="3o" fromLane="2" toLane="2" dir="s" state="M"/>
    <connection from=":0_9" to="4o" fromLane="0" toLane="3" dir="l" state="M"/>
    <connection from=":0_10" to="1o" fromLane="0" toLane="0" dir="r" state="M"/>
    <connection from=":0_11" to="2o" fromLane="0" toLane="0" dir="s" state="M"/>
    <connection from=":0_11" to="2o" fromLane="1" toLane="1" dir="s" state="M"/>
    <connection from=":0_11" to="2o" fromLane="2" toLane="2" dir="s" state="M"/>
    <connection from=":0_14" to="3o" fromLane="0" toLane="3" dir="l" state="M"/>
    <connection from=":0_15" to="4o" fromLane="0" toLane="0" dir="r" state="M"/>
    <connection from=":0_16" to="1o" fromLane="0" toLane="0" dir="s" state="M"/>
    <connection from=":0_16" to="1o" fromLane="1" toLane="1" dir="s" state="M"/>
    <connection from=":0_16" to="1o" fromLane="2" toLane="2" dir="s" state="M"/>
    <connection from=":0_19" to="2o" fromLane="0" toLane="3" dir="l" state="M"/>

</net>