<routes>
    <vType id="car" accel="0.8" decel="4.5" sigma="0.5" length="5" minGap="2.5" maxSpeed="16.67" guiShape="passenger"/>
    
    <route id="E_N" edges="1i 2o"/>
    <route id="E_W" edges="1i 3o"/>
    <route id="E_S" edges="1i 4o"/>
    <route id="N_W" edges="2i 3o"/>
    <route id="N_S" edges="2i 4o"/>
    <route id="N_E" edges="2i 1o"/>
    <route id="W_S" edges="3i 4o"/>
    <route id="W_E" edges="3i 1o"/>
    <route id="W_N" edges="3i 2o"/>
    <route id="S_E" edges="4i 1o"/>
    <route id="S_N" edges="4i 2o"/>
    <route id="S_W" edges="4i 3o"/>
    
    <vehicle id="up_0" type="car" route="up" depart="0" />
    <vehicle id="up_1" type="car" route="up" depart="1" />
    <vehicle id="up_2" type="car" route="up" depart="2" />
    <vehicle id="up_3" type="car" route="up" depart="3" />
    <vehicle id="up_4" type="car" route="up" depart="4" />
    <vehicle id="up_5" type="car" route="up" depart="5" />
    <vehicle id="up_6" type="car" route="up" depart="6" />
    <vehicle id="up_7" type="car" route="up" depart="7" />
    <vehicle id="up_8" type="car" route="up" depart="8" />
    <vehicle id="up_9" type="car" route="up" depart="9" />
    <vehicle id="up_10" type="car" route="up" depart="10" />
    <vehicle id="up_11" type="car" route="up" depart="11" />
    <vehicle id="up_12" type="car" route="up" depart="12" />
    <vehicle id="up_13" type="car" route="up" depart="13" />
    <vehicle id="up_14" type="car" route="up" depart="14" />
    <vehicle id="up_15" type="car" route="up" depart="15" />
    <vehicle id="up_16" type="car" route="up" depart="16" />
    <vehicle id="up_17" type="car" route="up" depart="17" />
    <vehicle id="up_18" type="car" route="up" depart="18" />
    <vehicle id="up_19" type="car" route="up" depart="19" />
    <vehicle id="up_20" type="car" route="up" depart="20" />
    <vehicle id="up_21" type="car" route="up" depart="21" />
    <vehicle id="up_22" type="car" route="up" depart="22" />
    <vehicle id="up_23" type="car" route="up" depart="23" />
    <vehicle id="up_24" type="car" route="up" depart="24" />
    <vehicle id="up_25" type="car" route="up" depart="25" />
    <vehicle id="up_26" type="car" route="up" depart="26" />
    <vehicle id="up_27" type="car" route="up" depart="27" />
    <vehicle id="up_28" type="car" route="up" depart="28" />
    <vehicle id="up_29" type="car" route="up" depart="29" />
    <vehicle id="up_30" type="car" route="up" depart="30" />
    <vehicle id="up_31" type="car" route="up" depart="31" />
    <vehicle id="up_32" type="car" route="up" depart="32" />
    <vehicle id="up_33" type="car" route="up" depart="33" />
    <vehicle id="up_34" type="car" route="up" depart="34" />
    <vehicle id="up_35" type="car" route="up" depart="35" />
    <vehicle id="up_36" type="car" route="up" depart="36" />
    <vehicle id="up_37" type="car" route="up" depart="37" />
    <vehicle id="up_38" type="car" route="up" depart="38" />
    <vehicle id="up_39" type="car" route="up" depart="39" />
    <vehicle id="up_40" type="car" route="up" depart="40" />
    <vehicle id="up_41" type="car" route="up" depart="41" />
    <vehicle id="up_42" type="car" route="up" depart="42" />
    <vehicle id="up_43" type="car" route="up" depart="43" />
    <vehicle id="up_44" type="car" route="up" depart="44" />
    <vehicle id="up_45" type="car" route="up" depart="45" />
    <vehicle id="up_46" type="car" route="up" depart="46" />
    <vehicle id="up_47" type="car" route="up" depart="47" />
    <vehicle id="up_48" type="car" route="up" depart="48" />
    <vehicle id="up_49" type="car" route="up" depart="49" />
    <vehicle id="up_50" type="car" route="up" depart="50" />
    <vehicle id="up_51" type="car" route="up" depart="51" />
    <vehicle id="up_52" type="car" route="up" depart="52" />
    <vehicle id="up_53" type="car" route="up" depart="53" />
    <vehicle id="up_54" type="car" route="up" depart="54" />
    <vehicle id="up_55" type="car" route="up" depart="55" />
    <vehicle id="up_56" type="car" route="up" depart="56" />
    <vehicle id="up_57" type="car" route="up" depart="57" />
    <vehicle id="up_58" type="car" route="up" depart="58" />
    <vehicle id="up_59" type="car" route="up" depart="59" />
    <vehicle id="up_60" type="car" route="up" depart="60" />
    <vehicle id="up_61" type="car" route="up" depart="61" />
    <vehicle id="up_62" type="car" route="up" depart="62" />
    <vehicle id="up_63" type="car" route="up" depart="63" />
    <vehicle id="up_64" type="car" route="up" depart="64" />
    <vehicle id="up_65" type="car" route="up" depart="65" />
    <vehicle id="up_66" type="car" route="up" depart="66" />
    <vehicle id="up_67" type="car" route="up" depart="67" />
    <vehicle id="up_68" type="car" route="up" depart="68" />
    <vehicle id="up_69" type="car" route="up" depart="69" />
    <vehicle id="up_70" type="car" route="up" depart="70" />
    <vehicle id="up_71" type="car" route="up" depart="71" />
    <vehicle id="up_72" type="car" route="up" depart="72" />
    <vehicle id="up_73" type="car" route="up" depart="73" />
    <vehicle id="up_74" type="car" route="up" depart="74" />
    <vehicle id="up_75" type="car" route="up" depart="75" />
    <vehicle id="up_76" type="car" route="up" depart="76" />
    <vehicle id="up_77" type="car" route="up" depart="77" />
    <vehicle id="up_78" type="car" route="up" depart="78" />
    <vehicle id="up_79" type="car" route="up" depart="79" />
    <vehicle id="up_80" type="car" route="up" depart="80" />
    <vehicle id="up_81" type="car" route="up" depart="81" />
    <vehicle id="up_82" type="car" route="up" depart="82" />
    <vehicle id="up_83" type="car" route="up" depart="83" />
    <vehicle id="up_84" type="car" route="up" depart="84" />
    <vehicle id="up_85" type="car" route="up" depart="85" />
    <vehicle id="up_86" type="car" route="up" depart="86" />
    <vehicle id="up_87" type="car" route="up" depart="87" />
    <vehicle id="up_88" type="car" route="up" depart="88" />
    <vehicle id="up_89" type="car" route="up" depart="89" />
    <vehicle id="up_90" type="car" route="up" depart="90" />
    <vehicle id="up_91" type="car" route="up" depart="91" />
    <vehicle id="up_92" type="car" route="up" depart="92" />
    <vehicle id="up_93" type="car" route="up" depart="93" />
    <vehicle id="up_94" type="car" route="up" depart="94" />
    <vehicle id="up_95" type="car" route="up" depart="95" />
    <vehicle id="up_96" type="car" route="up" depart="96" />
    <vehicle id="up_97" type="car" route="up" depart="97" />
    <vehicle id="up_98" type="car" route="up" depart="98" />
    <vehicle id="up_99" type="car" route="up" depart="99" />
    <vehicle id="up_100" type="car" route="up" depart="100" />
    <vehicle id="up_101" type="car" route="up" depart="101" />
    <vehicle id="up_102" type="car" route="up" depart="102" />
    <vehicle id="up_103" type="car" route="up" depart="103" />
    <vehicle id="up_104" type="car" route="up" depart="104" />
    <vehicle id="up_105" type="car" route="up" depart="105" />
    <vehicle id="up_106" type="car" route="up" depart="106" />
    <vehicle id="up_107" type="car" route="up" depart="107" />
    <vehicle id="up_108" type="car" route="up" depart="108" />
    <vehicle id="up_109" type="car" route="up" depart="109" />
    <vehicle id="up_110" type="car" route="up" depart="110" />
    <vehicle id="up_111" type="car" route="up" depart="111" />
    <vehicle id="up_112" type="car" route="up" depart="112" />
    <vehicle id="up_113" type="car" route="up" depart="113" />
    <vehicle id="up_114" type="car" route="up" depart="114" />
    <vehicle id="up_115" type="car" route="up" depart="115" />
    <vehicle id="up_116" type="car" route="up" depart="116" />
    <vehicle id="up_117" type="car" route="up" depart="117" />
    <vehicle id="up_118" type="car" route="up" depart="118" />
    <vehicle id="up_119" type="car" route="up" depart="119" />
    <vehicle id="up_120" type="car" route="up" depart="120" />
    <vehicle id="up_121" type="car" route="up" depart="121" />
    <vehicle id="up_122" type="car" route="up" depart="122" />
    <vehicle id="up_123" type="car" route="up" depart="123" />
    <vehicle id="up_124" type="car" route="up" depart="124" />
    <vehicle id="up_125" type="car" route="up" depart="125" />
    <vehicle id="up_126" type="car" route="up" depart="126" />
    <vehicle id="up_127" type="car" route="up" depart="127" />
    <vehicle id="up_128" type="car" route="up" depart="128" />
    <vehicle id="up_129" type="car" route="up" depart="129" />
    <vehicle id="up_130" type="car" route="up" depart="130" />
    <vehicle id="up_131" type="car" route="up" depart="131" />
    <vehicle id="up_132" type="car" route="up" depart="132" />
    <vehicle id="up_133" type="car" route="up" depart="133" />
    <vehicle id="up_134" type="car" route="up" depart="134" />
    <vehicle id="up_135" type="car" route="up" depart="135" />
    <vehicle id="up_136" type="car" route="up" depart="136" />
    <vehicle id="up_137" type="car" route="up" depart="137" />
    <vehicle id="up_138" type="car" route="up" depart="138" />
    <vehicle id="up_139" type="car" route="up" depart="139" />
    <vehicle id="up_140" type="car" route="up" depart="140" />
    <vehicle id="up_141" type="car" route="up" depart="141" />
    <vehicle id="up_142" type="car" route="up" depart="142" />
    <vehicle id="up_143" type="car" route="up" depart="143" />
    <vehicle id="up_144" type="car" route="up" depart="144" />
    <vehicle id="up_145" type="car" route="up" depart="145" />
    <vehicle id="up_146" type="car" route="up" depart="146" />
    <vehicle id="up_147" type="car" route="up" depart="147" />
    <vehicle id="up_148" type="car" route="up" depart="148" />
    <vehicle id="up_149" type="car" route="up" depart="149" />
    <vehicle id="up_150" type="car" route="up" depart="150" />
    <vehicle id="up_151" type="car" route="up" depart="151" />
    <vehicle id="up_152" type="car" route="up" depart="152" />
    <vehicle id="up_153" type="car" route="up" depart="153" />
    <vehicle id="up_154" type="car" route="up" depart="154" />
    <vehicle id="up_155" type="car" route="up" depart="155" />
    <vehicle id="up_156" type="car" route="up" depart="156" />
    <vehicle id="up_157" type="car" route="up" depart="157" />
    <vehicle id="up_158" type="car" route="up" depart="158" />
    <vehicle id="up_159" type="car" route="up" depart="159" />
    <vehicle id="up_160" type="car" route="up" depart="160" />
    <vehicle id="up_161" type="car" route="up" depart="161" />
    <vehicle id="up_162" type="car" route="up" depart="162" />
    <vehicle id="up_163" type="car" route="up" depart="163" />
    <vehicle id="up_164" type="car" route="up" depart="164" />
    <vehicle id="up_165" type="car" route="up" depart="165" />
    <vehicle id="up_166" type="car" route="up" depart="166" />
    <vehicle id="up_167" type="car" route="up" depart="167" />
    <vehicle id="up_168" type="car" route="up" depart="168" />
    <vehicle id="up_169" type="car" route="up" depart="169" />
    <vehicle id="up_170" type="car" route="up" depart="170" />
    <vehicle id="up_171" type="car" route="up" depart="171" />
    <vehicle id="up_172" type="car" route="up" depart="172" />
    <vehicle id="up_173" type="car" route="up" depart="173" />
    <vehicle id="up_174" type="car" route="up" depart="174" />
    <vehicle id="up_175" type="car" route="up" depart="175" />
    <vehicle id="up_176" type="car" route="up" depart="176" />
    <vehicle id="up_177" type="car" route="up" depart="177" />
    <vehicle id="up_178" type="car" route="up" depart="178" />
    <vehicle id="up_179" type="car" route="up" depart="179" />
    <vehicle id="up_180" type="car" route="up" depart="180" />
    <vehicle id="up_181" type="car" route="up" depart="181" />
    <vehicle id="up_182" type="car" route="up" depart="182" />
    <vehicle id="up_183" type="car" route="up" depart="183" />
    <vehicle id="up_184" type="car" route="up" depart="184" />
    <vehicle id="up_185" type="car" route="up" depart="185" />
    <vehicle id="up_186" type="car" route="up" depart="186" />
    <vehicle id="up_187" type="car" route="up" depart="187" />
    <vehicle id="up_188" type="car" route="up" depart="188" />
    <vehicle id="up_189" type="car" route="up" depart="189" />
    <vehicle id="up_190" type="car" route="up" depart="190" />
    <vehicle id="up_191" type="car" route="up" depart="191" />
    <vehicle id="up_192" type="car" route="up" depart="192" />
    <vehicle id="up_193" type="car" route="up" depart="193" />
    <vehicle id="up_194" type="car" route="up" depart="194" />
    <vehicle id="up_195" type="car" route="up" depart="195" />
    <vehicle id="up_196" type="car" route="up" depart="196" />
    <vehicle id="up_197" type="car" route="up" depart="197" />
    <vehicle id="up_198" type="car" route="up" depart="198" />
    <vehicle id="up_199" type="car" route="up" depart="199" />
    <vehicle id="up_200" type="car" route="up" depart="200" />
    <vehicle id="up_201" type="car" route="up" depart="201" />
    <vehicle id="up_202" type="car" route="up" depart="202" />
    <vehicle id="up_203" type="car" route="up" depart="203" />
    <vehicle id="up_204" type="car" route="up" depart="204" />
    <vehicle id="up_205" type="car" route="up" depart="205" />
    <vehicle id="up_206" type="car" route="up" depart="206" />
    <vehicle id="up_207" type="car" route="up" depart="207" />
    <vehicle id="up_208" type="car" route="up" depart="208" />
    <vehicle id="up_209" type="car" route="up" depart="209" />
    <vehicle id="up_210" type="car" route="up" depart="210" />
    <vehicle id="up_211" type="car" route="up" depart="211" />
    <vehicle id="up_212" type="car" route="up" depart="212" />
    <vehicle id="up_213" type="car" route="up" depart="213" />
    <vehicle id="up_214" type="car" route="up" depart="214" />
    <vehicle id="up_215" type="car" route="up" depart="215" />
    <vehicle id="up_216" type="car" route="up" depart="216" />
    <vehicle id="up_217" type="car" route="up" depart="217" />
    <vehicle id="up_218" type="car" route="up" depart="218" />
    <vehicle id="up_219" type="car" route="up" depart="219" />
    <vehicle id="up_220" type="car" route="up" depart="220" />
    <vehicle id="up_221" type="car" route="up" depart="221" />
    <vehicle id="up_222" type="car" route="up" depart="222" />
    <vehicle id="up_223" type="car" route="up" depart="223" />
    <vehicle id="up_224" type="car" route="up" depart="224" />
    <vehicle id="up_225" type="car" route="up" depart="225" />
    <vehicle id="up_226" type="car" route="up" depart="226" />
    <vehicle id="up_227" type="car" route="up" depart="227" />
    <vehicle id="up_228" type="car" route="up" depart="228" />
    <vehicle id="up_229" type="car" route="up" depart="229" />
    <vehicle id="up_230" type="car" route="up" depart="230" />
    <vehicle id="up_231" type="car" route="up" depart="231" />
    <vehicle id="up_232" type="car" route="up" depart="232" />
    <vehicle id="up_233" type="car" route="up" depart="233" />
    <vehicle id="up_234" type="car" route="up" depart="234" />
    <vehicle id="up_235" type="car" route="up" depart="235" />
    <vehicle id="up_236" type="car" route="up" depart="236" />
    <vehicle id="up_237" type="car" route="up" depart="237" />
    <vehicle id="up_238" type="car" route="up" depart="238" />
    <vehicle id="up_239" type="car" route="up" depart="239" />
    <vehicle id="up_240" type="car" route="up" depart="240" />
    <vehicle id="up_241" type="car" route="up" depart="241" />
    <vehicle id="up_242" type="car" route="up" depart="242" />
    <vehicle id="up_243" type="car" route="up" depart="243" />
    <vehicle id="up_244" type="car" route="up" depart="244" />
    <vehicle id="up_245" type="car" route="up" depart="245" />
    <vehicle id="up_246" type="car" route="up" depart="246" />
    <vehicle id="up_247" type="car" route="up" depart="247" />
    <vehicle id="up_248" type="car" route="up" depart="248" />
    <vehicle id="up_249" type="car" route="up" depart="249" />
    <vehicle id="up_250" type="car" route="up" depart="250" />
    <vehicle id="up_251" type="car" route="up" depart="251" />
    <vehicle id="up_252" type="car" route="up" depart="252" />
    <vehicle id="up_253" type="car" route="up" depart="253" />
    <vehicle id="up_254" type="car" route="up" depart="254" />
    <vehicle id="up_255" type="car" route="up" depart="255" />
    <vehicle id="up_256" type="car" route="up" depart="256" />
    <vehicle id="up_257" type="car" route="up" depart="257" />
    <vehicle id="up_258" type="car" route="up" depart="258" />
    <vehicle id="up_259" type="car" route="up" depart="259" />
    <vehicle id="up_260" type="car" route="up" depart="260" />
    <vehicle id="up_261" type="car" route="up" depart="261" />
    <vehicle id="up_262" type="car" route="up" depart="262" />
    <vehicle id="up_263" type="car" route="up" depart="263" />
    <vehicle id="up_264" type="car" route="up" depart="264" />
    <vehicle id="up_265" type="car" route="up" depart="265" />
    <vehicle id="up_266" type="car" route="up" depart="266" />
    <vehicle id="up_267" type="car" route="up" depart="267" />
    <vehicle id="up_268" type="car" route="up" depart="268" />
    <vehicle id="up_269" type="car" route="up" depart="269" />
    <vehicle id="up_270" type="car" route="up" depart="270" />
    <vehicle id="up_271" type="car" route="up" depart="271" />
    <vehicle id="up_272" type="car" route="up" depart="272" />
    <vehicle id="up_273" type="car" route="up" depart="273" />
    <vehicle id="up_274" type="car" route="up" depart="274" />
    <vehicle id="up_275" type="car" route="up" depart="275" />
    <vehicle id="up_276" type="car" route="up" depart="276" />
    <vehicle id="up_277" type="car" route="up" depart="277" />
    <vehicle id="up_278" type="car" route="up" depart="278" />
    <vehicle id="up_279" type="car" route="up" depart="279" />
    <vehicle id="up_280" type="car" route="up" depart="280" />
    <vehicle id="up_281" type="car" route="up" depart="281" />
    <vehicle id="up_282" type="car" route="up" depart="282" />
    <vehicle id="up_283" type="car" route="up" depart="283" />
    <vehicle id="up_284" type="car" route="up" depart="284" />
    <vehicle id="up_285" type="car" route="up" depart="285" />
    <vehicle id="up_286" type="car" route="up" depart="286" />
    <vehicle id="up_287" type="car" route="up" depart="287" />
    <vehicle id="up_288" type="car" route="up" depart="288" />
    <vehicle id="up_289" type="car" route="up" depart="289" />
    <vehicle id="up_290" type="car" route="up" depart="290" />
    <vehicle id="up_291" type="car" route="up" depart="291" />
    <vehicle id="up_292" type="car" route="up" depart="292" />
    <vehicle id="up_293" type="car" route="up" depart="293" />
    <vehicle id="up_294" type="car" route="up" depart="294" />
    <vehicle id="up_295" type="car" route="up" depart="295" />
    <vehicle id="up_296" type="car" route="up" depart="296" />
    <vehicle id="up_297" type="car" route="up" depart="297" />
    <vehicle id="up_298" type="car" route="up" depart="298" />
    <vehicle id="up_299" type="car" route="up" depart="299" />
    <vehicle id="up_300" type="car" route="up" depart="300" />
    <vehicle id="up_301" type="car" route="up" depart="301" />
    <vehicle id="up_302" type="car" route="up" depart="302" />
    <vehicle id="up_303" type="car" route="up" depart="303" />
    <vehicle id="up_304" type="car" route="up" depart="304" />
    <vehicle id="up_305" type="car" route="up" depart="305" />
    <vehicle id="up_306" type="car" route="up" depart="306" />
    <vehicle id="up_307" type="car" route="up" depart="307" />
    <vehicle id="up_308" type="car" route="up" depart="308" />
    <vehicle id="up_309" type="car" route="up" depart="309" />
    <vehicle id="up_310" type="car" route="up" depart="310" />
    <vehicle id="up_311" type="car" route="up" depart="311" />
    <vehicle id="up_312" type="car" route="up" depart="312" />
    <vehicle id="up_313" type="car" route="up" depart="313" />
    <vehicle id="up_314" type="car" route="up" depart="314" />
    <vehicle id="up_315" type="car" route="up" depart="315" />
    <vehicle id="up_316" type="car" route="up" depart="316" />
    <vehicle id="up_317" type="car" route="up" depart="317" />
    <vehicle id="up_318" type="car" route="up" depart="318" />
    <vehicle id="up_319" type="car" route="up" depart="319" />
    <vehicle id="up_320" type="car" route="up" depart="320" />
    <vehicle id="up_321" type="car" route="up" depart="321" />
    <vehicle id="up_322" type="car" route="up" depart="322" />
    <vehicle id="up_323" type="car" route="up" depart="323" />
    <vehicle id="up_324" type="car" route="up" depart="324" />
    <vehicle id="up_325" type="car" route="up" depart="325" />
    <vehicle id="up_326" type="car" route="up" depart="326" />
    <vehicle id="up_327" type="car" route="up" depart="327" />
    <vehicle id="up_328" type="car" route="up" depart="328" />
    <vehicle id="up_329" type="car" route="up" depart="329" />
    <vehicle id="up_330" type="car" route="up" depart="330" />
    <vehicle id="up_331" type="car" route="up" depart="331" />
    <vehicle id="up_332" type="car" route="up" depart="332" />
    <vehicle id="up_333" type="car" route="up" depart="333" />
    <vehicle id="up_334" type="car" route="up" depart="334" />
    <vehicle id="up_335" type="car" route="up" depart="335" />
    <vehicle id="up_336" type="car" route="up" depart="336" />
    <vehicle id="up_337" type="car" route="up" depart="337" />
    <vehicle id="up_338" type="car" route="up" depart="338" />
    <vehicle id="up_339" type="car" route="up" depart="339" />
    <vehicle id="up_340" type="car" route="up" depart="340" />
    <vehicle id="up_341" type="car" route="up" depart="341" />
    <vehicle id="up_342" type="car" route="up" depart="342" />
    <vehicle id="up_343" type="car" route="up" depart="343" />
    <vehicle id="up_344" type="car" route="up" depart="344" />
    <vehicle id="up_345" type="car" route="up" depart="345" />
    <vehicle id="up_346" type="car" route="up" depart="346" />
    <vehicle id="up_347" type="car" route="up" depart="347" />
    <vehicle id="up_348" type="car" route="up" depart="348" />
    <vehicle id="up_349" type="car" route="up" depart="349" />
    <vehicle id="up_350" type="car" route="up" depart="350" />
    <vehicle id="up_351" type="car" route="up" depart="351" />
    <vehicle id="up_352" type="car" route="up" depart="352" />
    <vehicle id="up_353" type="car" route="up" depart="353" />
    <vehicle id="up_354" type="car" route="up" depart="354" />
    <vehicle id="up_355" type="car" route="up" depart="355" />
    <vehicle id="up_356" type="car" route="up" depart="356" />
    <vehicle id="up_357" type="car" route="up" depart="357" />
    <vehicle id="up_358" type="car" route="up" depart="358" />
    <vehicle id="up_359" type="car" route="up" depart="359" />
    <vehicle id="up_360" type="car" route="up" depart="360" />
    <vehicle id="up_361" type="car" route="up" depart="361" />
    <vehicle id="up_362" type="car" route="up" depart="362" />
    <vehicle id="up_363" type="car" route="up" depart="363" />
    <vehicle id="up_364" type="car" route="up" depart="364" />
    <vehicle id="up_365" type="car" route="up" depart="365" />
    <vehicle id="up_366" type="car" route="up" depart="366" />
    <vehicle id="up_367" type="car" route="up" depart="367" />
    <vehicle id="up_368" type="car" route="up" depart="368" />
    <vehicle id="up_369" type="car" route="up" depart="369" />
    <vehicle id="up_370" type="car" route="up" depart="370" />
    <vehicle id="up_371" type="car" route="up" depart="371" />
    <vehicle id="up_372" type="car" route="up" depart="372" />
    <vehicle id="up_373" type="car" route="up" depart="373" />
    <vehicle id="up_374" type="car" route="up" depart="374" />
    <vehicle id="up_375" type="car" route="up" depart="375" />
    <vehicle id="up_376" type="car" route="up" depart="376" />
    <vehicle id="up_377" type="car" route="up" depart="377" />
    <vehicle id="up_378" type="car" route="up" depart="378" />
    <vehicle id="up_379" type="car" route="up" depart="379" />
    <vehicle id="up_380" type="car" route="up" depart="380" />
    <vehicle id="up_381" type="car" route="up" depart="381" />
    <vehicle id="up_382" type="car" route="up" depart="382" />
    <vehicle id="up_383" type="car" route="up" depart="383" />
    <vehicle id="up_384" type="car" route="up" depart="384" />
    <vehicle id="up_385" type="car" route="up" depart="385" />
    <vehicle id="up_386" type="car" route="up" depart="386" />
    <vehicle id="up_387" type="car" route="up" depart="387" />
    <vehicle id="up_388" type="car" route="up" depart="388" />
    <vehicle id="up_389" type="car" route="up" depart="389" />
    <vehicle id="up_390" type="car" route="up" depart="390" />
    <vehicle id="up_391" type="car" route="up" depart="391" />
    <vehicle id="up_392" type="car" route="up" depart="392" />
    <vehicle id="up_393" type="car" route="up" depart="393" />
    <vehicle id="up_394" type="car" route="up" depart="394" />
    <vehicle id="up_395" type="car" route="up" depart="395" />
    <vehicle id="up_396" type="car" route="up" depart="396" />
    <vehicle id="up_397" type="car" route="up" depart="397" />
    <vehicle id="up_398" type="car" route="up" depart="398" />
    <vehicle id="up_399" type="car" route="up" depart="399" />
    <vehicle id="up_400" type="car" route="up" depart="400" />
    <vehicle id="up_401" type="car" route="up" depart="401" />
    <vehicle id="up_402" type="car" route="up" depart="402" />
    <vehicle id="up_403" type="car" route="up" depart="403" />
    <vehicle id="up_404" type="car" route="up" depart="404" />
    <vehicle id="up_405" type="car" route="up" depart="405" />
    <vehicle id="up_406" type="car" route="up" depart="406" />
    <vehicle id="up_407" type="car" route="up" depart="407" />
    <vehicle id="up_408" type="car" route="up" depart="408" />
    <vehicle id="up_409" type="car" route="up" depart="409" />
    <vehicle id="up_410" type="car" route="up" depart="410" />
    <vehicle id="up_411" type="car" route="up" depart="411" />
    <vehicle id="up_412" type="car" route="up" depart="412" />
    <vehicle id="up_413" type="car" route="up" depart="413" />
    <vehicle id="up_414" type="car" route="up" depart="414" />
    <vehicle id="up_415" type="car" route="up" depart="415" />
    <vehicle id="up_416" type="car" route="up" depart="416" />
    <vehicle id="up_417" type="car" route="up" depart="417" />
    <vehicle id="up_418" type="car" route="up" depart="418" />
    <vehicle id="up_419" type="car" route="up" depart="419" />
    <vehicle id="up_420" type="car" route="up" depart="420" />
    <vehicle id="up_421" type="car" route="up" depart="421" />
    <vehicle id="up_422" type="car" route="up" depart="422" />
    <vehicle id="up_423" type="car" route="up" depart="423" />
    <vehicle id="up_424" type="car" route="up" depart="424" />
    <vehicle id="up_425" type="car" route="up" depart="425" />
    <vehicle id="up_426" type="car" route="up" depart="426" />
    <vehicle id="up_427" type="car" route="up" depart="427" />
    <vehicle id="up_428" type="car" route="up" depart="428" />
    <vehicle id="up_429" type="car" route="up" depart="429" />
    <vehicle id="up_430" type="car" route="up" depart="430" />
    <vehicle id="up_431" type="car" route="up" depart="431" />
    <vehicle id="up_432" type="car" route="up" depart="432" />
    <vehicle id="up_433" type="car" route="up" depart="433" />
    <vehicle id="up_434" type="car" route="up" depart="434" />
    <vehicle id="up_435" type="car" route="up" depart="435" />
    <vehicle id="up_436" type="car" route="up" depart="436" />
    <vehicle id="up_437" type="car" route="up" depart="437" />
    <vehicle id="up_438" type="car" route="up" depart="438" />
    <vehicle id="up_439" type="car" route="up" depart="439" />
    <vehicle id="up_440" type="car" route="up" depart="440" />
    <vehicle id="up_441" type="car" route="up" depart="441" />
    <vehicle id="up_442" type="car" route="up" depart="442" />
    <vehicle id="up_443" type="car" route="up" depart="443" />
    <vehicle id="up_444" type="car" route="up" depart="444" />
    <vehicle id="up_445" type="car" route="up" depart="445" />
    <vehicle id="up_446" type="car" route="up" depart="446" />
    <vehicle id="up_447" type="car" route="up" depart="447" />
    <vehicle id="up_448" type="car" route="up" depart="448" />
    <vehicle id="up_449" type="car" route="up" depart="449" />
    <vehicle id="up_450" type="car" route="up" depart="450" />
    <vehicle id="up_451" type="car" route="up" depart="451" />
    <vehicle id="up_452" type="car" route="up" depart="452" />
    <vehicle id="up_453" type="car" route="up" depart="453" />
    <vehicle id="up_454" type="car" route="up" depart="454" />
    <vehicle id="up_455" type="car" route="up" depart="455" />
    <vehicle id="up_456" type="car" route="up" depart="456" />
    <vehicle id="up_457" type="car" route="up" depart="457" />
    <vehicle id="up_458" type="car" route="up" depart="458" />
    <vehicle id="up_459" type="car" route="up" depart="459" />
    <vehicle id="up_460" type="car" route="up" depart="460" />
    <vehicle id="up_461" type="car" route="up" depart="461" />
    <vehicle id="up_462" type="car" route="up" depart="462" />
    <vehicle id="up_463" type="car" route="up" depart="463" />
    <vehicle id="up_464" type="car" route="up" depart="464" />
    <vehicle id="up_465" type="car" route="up" depart="465" />
    <vehicle id="up_466" type="car" route="up" depart="466" />
    <vehicle id="up_467" type="car" route="up" depart="467" />
    <vehicle id="up_468" type="car" route="up" depart="468" />
    <vehicle id="up_469" type="car" route="up" depart="469" />