<routes>
            <vType id="car" accel="0.8" decel="4.5" sigma="0.5" length="5" minGap="2.5" maxSpeed="16.67" guiShape="passenger"/>
            
            <route id="E_N" edges="1i 2o"/>
            <route id="E_W" edges="1i 3o"/>
            <route id="E_S" edges="1i 4o"/>
            <route id="N_W" edges="2i 3o"/>
            <route id="N_S" edges="2i 4o"/>
            <route id="N_E" edges="2i 1o"/>
            <route id="W_S" edges="3i 4o"/>
            <route id="W_E" edges="3i 1o"/>
            <route id="W_N" edges="3i 2o"/>
            <route id="S_E" edges="4i 1o"/>
            <route id="S_N" edges="4i 2o"/>
            <route id="S_W" edges="4i 3o"/>
            
    <vehicle id="S_N_0" type="car" route="S_N" depart="0" departLane="random"/>
    <vehicle id="S_N_1" type="car" route="S_N" depart="1" departLane="random"/>
    <vehicle id="S_N_2" type="car" route="S_N" depart="2" departLane="random"/>
    <vehicle id="S_N_3" type="car" route="S_N" depart="3" departLane="random"/>
    <vehicle id="S_N_4" type="car" route="S_N" depart="4" departLane="random"/>
    <vehicle id="S_N_5" type="car" route="S_N" depart="5" departLane="random"/>
    <vehicle id="S_N_6" type="car" route="S_N" depart="6" departLane="random"/>
    <vehicle id="S_N_7" type="car" route="S_N" depart="7" departLane="random"/>
    <vehicle id="S_N_8" type="car" route="S_N" depart="8" departLane="random"/>
    <vehicle id="S_N_9" type="car" route="S_N" depart="9" departLane="random"/>
    <vehicle id="S_N_10" type="car" route="S_N" depart="10" departLane="random"/>
    <vehicle id="S_N_11" type="car" route="S_N" depart="11" departLane="random"/>
    <vehicle id="S_N_12" type="car" route="S_N" depart="12" departLane="random"/>
    <vehicle id="S_N_13" type="car" route="S_N" depart="13" departLane="random"/>
    <vehicle id="S_N_14" type="car" route="S_N" depart="14" departLane="random"/>
    <vehicle id="S_N_15" type="car" route="S_N" depart="15" departLane="random"/>
    <vehicle id="S_N_16" type="car" route="S_N" depart="16" departLane="random"/>
    <vehicle id="S_N_17" type="car" route="S_N" depart="17" departLane="random"/>
    <vehicle id="S_N_18" type="car" route="S_N" depart="18" departLane="random"/>
    <vehicle id="S_N_19" type="car" route="S_N" depart="19" departLane="random"/>
    <vehicle id="S_N_20" type="car" route="S_N" depart="20" departLane="random"/>
    <vehicle id="S_N_21" type="car" route="S_N" depart="21" departLane="random"/>
    <vehicle id="S_N_22" type="car" route="S_N" depart="22" departLane="random"/>
    <vehicle id="S_N_23" type="car" route="S_N" depart="23" departLane="random"/>
    <vehicle id="S_N_24" type="car" route="S_N" depart="24" departLane="random"/>
    <vehicle id="S_N_25" type="car" route="S_N" depart="25" departLane="random"/>
    <vehicle id="S_N_26" type="car" route="S_N" depart="26" departLane="random"/>
    <vehicle id="S_N_27" type="car" route="S_N" depart="27" departLane="random"/>
    <vehicle id="S_N_28" type="car" route="S_N" depart="28" departLane="random"/>
    <vehicle id="S_N_29" type="car" route="S_N" depart="29" departLane="random"/>
    <vehicle id="S_N_30" type="car" route="S_N" depart="30" departLane="random"/>
    <vehicle id="S_N_31" type="car" route="S_N" depart="31" departLane="random"/>
    <vehicle id="S_N_32" type="car" route="S_N" depart="32" departLane="random"/>
    <vehicle id="S_N_33" type="car" route="S_N" depart="33" departLane="random"/>
    <vehicle id="S_N_34" type="car" route="S_N" depart="34" departLane="random"/>
    <vehicle id="S_N_35" type="car" route="S_N" depart="35" departLane="random"/>
    <vehicle id="S_N_36" type="car" route="S_N" depart="36" departLane="random"/>
    <vehicle id="S_N_37" type="car" route="S_N" depart="37" departLane="random"/>
    <vehicle id="S_N_38" type="car" route="S_N" depart="38" departLane="random"/>
    <vehicle id="S_N_39" type="car" route="S_N" depart="39" departLane="random"/>
    <vehicle id="S_N_40" type="car" route="S_N" depart="40" departLane="random"/>
    <vehicle id="S_N_41" type="car" route="S_N" depart="41" departLane="random"/>
    <vehicle id="S_N_42" type="car" route="S_N" depart="42" departLane="random"/>
    <vehicle id="S_N_43" type="car" route="S_N" depart="43" departLane="random"/>
    <vehicle id="S_N_44" type="car" route="S_N" depart="44" departLane="random"/>
    <vehicle id="S_N_45" type="car" route="S_N" depart="45" departLane="random"/>
    <vehicle id="S_N_46" type="car" route="S_N" depart="46" departLane="random"/>
    <vehicle id="S_N_47" type="car" route="S_N" depart="47" departLane="random"/>
    <vehicle id="S_N_48" type="car" route="S_N" depart="48" departLane="random"/>
    <vehicle id="S_N_49" type="car" route="S_N" depart="49" departLane="random"/>
    <vehicle id="S_N_50" type="car" route="S_N" depart="50" departLane="random"/>
    <vehicle id="S_N_51" type="car" route="S_N" depart="51" departLane="random"/>
    <vehicle id="S_N_52" type="car" route="S_N" depart="52" departLane="random"/>
    <vehicle id="S_N_53" type="car" route="S_N" depart="53" departLane="random"/>
    <vehicle id="S_N_54" type="car" route="S_N" depart="54" departLane="random"/>
    <vehicle id="S_N_55" type="car" route="S_N" depart="55" departLane="random"/>
    <vehicle id="S_N_56" type="car" route="S_N" depart="56" departLane="random"/>
    <vehicle id="S_N_57" type="car" route="S_N" depart="57" departLane="random"/>
    <vehicle id="S_N_58" type="car" route="S_N" depart="58" departLane="random"/>
    <vehicle id="S_N_59" type="car" route="S_N" depart="59" departLane="random"/>
    <vehicle id="S_N_60" type="car" route="S_N" depart="60" departLane="random"/>
    <vehicle id="S_N_61" type="car" route="S_N" depart="61" departLane="random"/>
    <vehicle id="S_N_62" type="car" route="S_N" depart="62" departLane="random"/>
    <vehicle id="S_N_63" type="car" route="S_N" depart="63" departLane="random"/>
    <vehicle id="S_N_64" type="car" route="S_N" depart="64" departLane="random"/>
    <vehicle id="S_N_65" type="car" route="S_N" depart="65" departLane="random"/>
    <vehicle id="S_N_66" type="car" route="S_N" depart="66" departLane="random"/>
    <vehicle id="S_N_67" type="car" route="S_N" depart="67" departLane="random"/>
    <vehicle id="S_N_68" type="car" route="S_N" depart="68" departLane="random"/>
    <vehicle id="S_N_69" type="car" route="S_N" depart="69" departLane="random"/>
    <vehicle id="S_N_70" type="car" route="S_N" depart="70" departLane="random"/>
    <vehicle id="S_N_71" type="car" route="S_N" depart="71" departLane="random"/>
    <vehicle id="S_N_72" type="car" route="S_N" depart="72" departLane="random"/>
    <vehicle id="S_N_73" type="car" route="S_N" depart="73" departLane="random"/>
    <vehicle id="S_N_74" type="car" route="S_N" depart="74" departLane="random"/>
    <vehicle id="S_N_75" type="car" route="S_N" depart="75" departLane="random"/>
    <vehicle id="S_N_76" type="car" route="S_N" depart="76" departLane="random"/>
    <vehicle id="S_N_77" type="car" route="S_N" depart="77" departLane="random"/>
    <vehicle id="S_N_78" type="car" route="S_N" depart="78" departLane="random"/>
    <vehicle id="S_N_79" type="car" route="S_N" depart="79" departLane="random"/>
    <vehicle id="S_N_80" type="car" route="S_N" depart="80" departLane="random"/>
    <vehicle id="S_N_81" type="car" route="S_N" depart="81" departLane="random"/>
    <vehicle id="S_N_82" type="car" route="S_N" depart="82" departLane="random"/>
    <vehicle id="S_N_83" type="car" route="S_N" depart="83" departLane="random"/>
    <vehicle id="S_N_84" type="car" route="S_N" depart="84" departLane="random"/>
    <vehicle id="S_N_85" type="car" route="S_N" depart="85" departLane="random"/>
    <vehicle id="S_N_86" type="car" route="S_N" depart="86" departLane="random"/>
    <vehicle id="S_N_87" type="car" route="S_N" depart="87" departLane="random"/>
    <vehicle id="S_N_88" type="car" route="S_N" depart="88" departLane="random"/>
    <vehicle id="S_N_89" type="car" route="S_N" depart="89" departLane="random"/>
    <vehicle id="S_N_90" type="car" route="S_N" depart="90" departLane="random"/>
    <vehicle id="S_N_91" type="car" route="S_N" depart="91" departLane="random"/>
    <vehicle id="S_N_92" type="car" route="S_N" depart="92" departLane="random"/>
    <vehicle id="S_N_93" type="car" route="S_N" depart="93" departLane="random"/>
    <vehicle id="S_N_94" type="car" route="S_N" depart="94" departLane="random"/>
    <vehicle id="S_N_95" type="car" route="S_N" depart="95" departLane="random"/>
    <vehicle id="S_N_96" type="car" route="S_N" depart="96" departLane="random"/>
    <vehicle id="S_N_97" type="car" route="S_N" depart="97" departLane="random"/>
    <vehicle id="S_N_98" type="car" route="S_N" depart="98" departLane="random"/>
    <vehicle id="S_N_99" type="car" route="S_N" depart="99" departLane="random"/>
    <vehicle id="S_N_100" type="car" route="S_N" depart="100" departLane="random"/>
    <vehicle id="S_N_101" type="car" route="S_N" depart="101" departLane="random"/>
    <vehicle id="S_N_102" type="car" route="S_N" depart="102" departLane="random"/>
    <vehicle id="S_N_103" type="car" route="S_N" depart="103" departLane="random"/>
    <vehicle id="S_N_104" type="car" route="S_N" depart="104" departLane="random"/>
    <vehicle id="S_N_105" type="car" route="S_N" depart="105" departLane="random"/>
    <vehicle id="S_N_106" type="car" route="S_N" depart="106" departLane="random"/>
    <vehicle id="S_N_107" type="car" route="S_N" depart="107" departLane="random"/>
    <vehicle id="S_N_108" type="car" route="S_N" depart="108" departLane="random"/>
    <vehicle id="S_N_109" type="car" route="S_N" depart="109" departLane="random"/>
    <vehicle id="S_N_110" type="car" route="S_N" depart="110" departLane="random"/>
    <vehicle id="S_N_111" type="car" route="S_N" depart="111" departLane="random"/>
    <vehicle id="S_N_112" type="car" route="S_N" depart="112" departLane="random"/>
    <vehicle id="S_N_113" type="car" route="S_N" depart="113" departLane="random"/>
    <vehicle id="S_N_114" type="car" route="S_N" depart="114" departLane="random"/>
    <vehicle id="S_N_115" type="car" route="S_N" depart="115" departLane="random"/>
    <vehicle id="S_N_116" type="car" route="S_N" depart="116" departLane="random"/>
    <vehicle id="S_N_117" type="car" route="S_N" depart="117" departLane="random"/>
    <vehicle id="S_N_118" type="car" route="S_N" depart="118" departLane="random"/>
    <vehicle id="S_N_119" type="car" route="S_N" depart="119" departLane="random"/>
    <vehicle id="S_N_120" type="car" route="S_N" depart="120" departLane="random"/>
    <vehicle id="S_N_121" type="car" route="S_N" depart="121" departLane="random"/>
    <vehicle id="S_N_122" type="car" route="S_N" depart="122" departLane="random"/>
    <vehicle id="S_N_123" type="car" route="S_N" depart="123" departLane="random"/>
    <vehicle id="S_N_124" type="car" route="S_N" depart="124" departLane="random"/>
    <vehicle id="S_N_125" type="car" route="S_N" depart="125" departLane="random"/>
    <vehicle id="S_N_126" type="car" route="S_N" depart="126" departLane="random"/>
    <vehicle id="S_N_127" type="car" route="S_N" depart="127" departLane="random"/>
    <vehicle id="S_N_128" type="car" route="S_N" depart="128" departLane="random"/>
    <vehicle id="S_N_129" type="car" route="S_N" depart="129" departLane="random"/>
    <vehicle id="S_N_130" type="car" route="S_N" depart="130" departLane="random"/>
    <vehicle id="S_N_131" type="car" route="S_N" depart="131" departLane="random"/>
    <vehicle id="S_N_132" type="car" route="S_N" depart="132" departLane="random"/>
    <vehicle id="S_N_133" type="car" route="S_N" depart="133" departLane="random"/>
    <vehicle id="S_N_134" type="car" route="S_N" depart="134" departLane="random"/>
    <vehicle id="S_N_135" type="car" route="S_N" depart="135" departLane="random"/>
    <vehicle id="S_N_136" type="car" route="S_N" depart="136" departLane="random"/>
    <vehicle id="S_N_137" type="car" route="S_N" depart="137" departLane="random"/>
    <vehicle id="S_N_138" type="car" route="S_N" depart="138" departLane="random"/>
    <vehicle id="S_N_139" type="car" route="S_N" depart="139" departLane="random"/>
    <vehicle id="S_N_140" type="car" route="S_N" depart="140" departLane="random"/>
    <vehicle id="S_N_141" type="car" route="S_N" depart="141" departLane="random"/>
    <vehicle id="S_N_142" type="car" route="S_N" depart="142" departLane="random"/>
    <vehicle id="S_N_143" type="car" route="S_N" depart="143" departLane="random"/>
    <vehicle id="S_N_144" type="car" route="S_N" depart="144" departLane="random"/>
    <vehicle id="S_N_145" type="car" route="S_N" depart="145" departLane="random"/>
    <vehicle id="S_N_146" type="car" route="S_N" depart="146" departLane="random"/>
    <vehicle id="S_N_147" type="car" route="S_N" depart="147" departLane="random"/>
    <vehicle id="S_N_148" type="car" route="S_N" depart="148" departLane="random"/>
    <vehicle id="S_N_149" type="car" route="S_N" depart="149" departLane="random"/>
    <vehicle id="S_N_150" type="car" route="S_N" depart="150" departLane="random"/>
    <vehicle id="S_N_151" type="car" route="S_N" depart="151" departLane="random"/>
    <vehicle id="S_N_152" type="car" route="S_N" depart="152" departLane="random"/>
    <vehicle id="S_N_153" type="car" route="S_N" depart="153" departLane="random"/>
    <vehicle id="S_N_154" type="car" route="S_N" depart="154" departLane="random"/>
    <vehicle id="S_N_155" type="car" route="S_N" depart="155" departLane="random"/>
    <vehicle id="S_N_156" type="car" route="S_N" depart="156" departLane="random"/>
    <vehicle id="S_N_157" type="car" route="S_N" depart="157" departLane="random"/>
    <vehicle id="S_N_158" type="car" route="S_N" depart="158" departLane="random"/>
    <vehicle id="S_N_159" type="car" route="S_N" depart="159" departLane="random"/>
    <vehicle id="S_N_160" type="car" route="S_N" depart="160" departLane="random"/>
    <vehicle id="S_N_161" type="car" route="S_N" depart="161" departLane="random"/>
    <vehicle id="S_N_162" type="car" route="S_N" depart="162" departLane="random"/>
    <vehicle id="S_N_163" type="car" route="S_N" depart="163" departLane="random"/>
    <vehicle id="S_N_164" type="car" route="S_N" depart="164" departLane="random"/>
    <vehicle id="S_N_165" type="car" route="S_N" depart="165" departLane="random"/>
    <vehicle id="S_N_166" type="car" route="S_N" depart="166" departLane="random"/>
    <vehicle id="S_N_167" type="car" route="S_N" depart="167" departLane="random"/>
    <vehicle id="S_N_168" type="car" route="S_N" depart="168" departLane="random"/>
    <vehicle id="S_N_169" type="car" route="S_N" depart="169" departLane="random"/>
    <vehicle id="S_N_170" type="car" route="S_N" depart="170" departLane="random"/>
    <vehicle id="S_N_171" type="car" route="S_N" depart="171" departLane="random"/>
    <vehicle id="S_N_172" type="car" route="S_N" depart="172" departLane="random"/>
    <vehicle id="S_N_173" type="car" route="S_N" depart="173" departLane="random"/>
    <vehicle id="S_N_174" type="car" route="S_N" depart="174" departLane="random"/>
    <vehicle id="S_N_175" type="car" route="S_N" depart="175" departLane="random"/>
    <vehicle id="S_N_176" type="car" route="S_N" depart="176" departLane="random"/>
    <vehicle id="S_N_177" type="car" route="S_N" depart="177" departLane="random"/>
    <vehicle id="S_N_178" type="car" route="S_N" depart="178" departLane="random"/>
    <vehicle id="S_N_179" type="car" route="S_N" depart="179" departLane="random"/>
    <vehicle id="S_N_180" type="car" route="S_N" depart="180" departLane="random"/>
    <vehicle id="S_N_181" type="car" route="S_N" depart="181" departLane="random"/>
    <vehicle id="S_N_182" type="car" route="S_N" depart="182" departLane="random"/>
    <vehicle id="S_N_183" type="car" route="S_N" depart="183" departLane="random"/>
    <vehicle id="S_N_184" type="car" route="S_N" depart="184" departLane="random"/>
    <vehicle id="S_N_185" type="car" route="S_N" depart="185" departLane="random"/>
    <vehicle id="S_N_186" type="car" route="S_N" depart="186" departLane="random"/>
    <vehicle id="S_N_187" type="car" route="S_N" depart="187" departLane="random"/>
    <vehicle id="S_N_188" type="car" route="S_N" depart="188" departLane="random"/>
    <vehicle id="S_N_189" type="car" route="S_N" depart="189" departLane="random"/>
    <vehicle id="S_N_190" type="car" route="S_N" depart="190" departLane="random"/>
    <vehicle id="S_N_191" type="car" route="S_N" depart="191" departLane="random"/>
    <vehicle id="S_N_192" type="car" route="S_N" depart="192" departLane="random"/>
    <vehicle id="S_N_193" type="car" route="S_N" depart="193" departLane="random"/>
    <vehicle id="S_N_194" type="car" route="S_N" depart="194" departLane="random"/>
    <vehicle id="S_N_195" type="car" route="S_N" depart="195" departLane="random"/>
    <vehicle id="S_N_196" type="car" route="S_N" depart="196" departLane="random"/>
    <vehicle id="S_N_197" type="car" route="S_N" depart="197" departLane="random"/>
    <vehicle id="S_N_198" type="car" route="S_N" depart="198" departLane="random"/>
    <vehicle id="S_N_199" type="car" route="S_N" depart="199" departLane="random"/>
    <vehicle id="S_N_200" type="car" route="S_N" depart="200" departLane="random"/>
    <vehicle id="S_N_201" type="car" route="S_N" depart="201" departLane="random"/>
    <vehicle id="S_N_202" type="car" route="S_N" depart="202" departLane="random"/>
    <vehicle id="S_N_203" type="car" route="S_N" depart="203" departLane="random"/>
    <vehicle id="S_N_204" type="car" route="S_N" depart="204" departLane="random"/>
    <vehicle id="S_N_205" type="car" route="S_N" depart="205" departLane="random"/>
    <vehicle id="S_N_206" type="car" route="S_N" depart="206" departLane="random"/>
    <vehicle id="S_N_207" type="car" route="S_N" depart="207" departLane="random"/>
    <vehicle id="S_N_208" type="car" route="S_N" depart="208" departLane="random"/>
    <vehicle id="S_N_209" type="car" route="S_N" depart="209" departLane="random"/>
    <vehicle id="S_N_210" type="car" route="S_N" depart="210" departLane="random"/>
    <vehicle id="S_N_211" type="car" route="S_N" depart="211" departLane="random"/>
    <vehicle id="S_N_212" type="car" route="S_N" depart="212" departLane="random"/>
    <vehicle id="S_N_213" type="car" route="S_N" depart="213" departLane="random"/>
    <vehicle id="S_N_214" type="car" route="S_N" depart="214" departLane="random"/>
    <vehicle id="S_N_215" type="car" route="S_N" depart="215" departLane="random"/>
    <vehicle id="S_N_216" type="car" route="S_N" depart="216" departLane="random"/>
    <vehicle id="S_N_217" type="car" route="S_N" depart="217" departLane="random"/>
    <vehicle id="S_N_218" type="car" route="S_N" depart="218" departLane="random"/>
    <vehicle id="S_N_219" type="car" route="S_N" depart="219" departLane="random"/>
    <vehicle id="S_N_220" type="car" route="S_N" depart="220" departLane="random"/>
    <vehicle id="S_N_221" type="car" route="S_N" depart="221" departLane="random"/>
    <vehicle id="S_N_222" type="car" route="S_N" depart="222" departLane="random"/>
    <vehicle id="S_N_223" type="car" route="S_N" depart="223" departLane="random"/>
    <vehicle id="S_N_224" type="car" route="S_N" depart="224" departLane="random"/>
    <vehicle id="S_N_225" type="car" route="S_N" depart="225" departLane="random"/>
    <vehicle id="S_N_226" type="car" route="S_N" depart="226" departLane="random"/>
    <vehicle id="S_N_227" type="car" route="S_N" depart="227" departLane="random"/>
    <vehicle id="S_N_228" type="car" route="S_N" depart="228" departLane="random"/>
    <vehicle id="S_N_229" type="car" route="S_N" depart="229" departLane="random"/>
    <vehicle id="S_N_230" type="car" route="S_N" depart="230" departLane="random"/>
    <vehicle id="S_N_231" type="car" route="S_N" depart="231" departLane="random"/>
    <vehicle id="S_N_232" type="car" route="S_N" depart="232" departLane="random"/>
    <vehicle id="S_N_233" type="car" route="S_N" depart="233" departLane="random"/>
    <vehicle id="S_N_234" type="car" route="S_N" depart="234" departLane="random"/>
    <vehicle id="S_N_235" type="car" route="S_N" depart="235" departLane="random"/>
    <vehicle id="S_N_236" type="car" route="S_N" depart="236" departLane="random"/>
    <vehicle id="S_N_237" type="car" route="S_N" depart="237" departLane="random"/>
    <vehicle id="S_N_238" type="car" route="S_N" depart="238" departLane="random"/>
    <vehicle id="S_N_239" type="car" route="S_N" depart="239" departLane="random"/>
    <vehicle id="S_N_240" type="car" route="S_N" depart="240" departLane="random"/>
    <vehicle id="S_N_241" type="car" route="S_N" depart="241" departLane="random"/>
    <vehicle id="S_N_242" type="car" route="S_N" depart="242" departLane="random"/>
    <vehicle id="S_N_243" type="car" route="S_N" depart="243" departLane="random"/>
    <vehicle id="S_N_244" type="car" route="S_N" depart="244" departLane="random"/>
    <vehicle id="S_N_245" type="car" route="S_N" depart="245" departLane="random"/>
    <vehicle id="S_N_246" type="car" route="S_N" depart="246" departLane="random"/>
    <vehicle id="S_N_247" type="car" route="S_N" depart="247" departLane="random"/>
    <vehicle id="S_N_248" type="car" route="S_N" depart="248" departLane="random"/>
    <vehicle id="S_N_249" type="car" route="S_N" depart="249" departLane="random"/>
    <vehicle id="S_N_250" type="car" route="S_N" depart="250" departLane="random"/>
    <vehicle id="S_N_251" type="car" route="S_N" depart="251" departLane="random"/>
    <vehicle id="S_N_252" type="car" route="S_N" depart="252" departLane="random"/>
    <vehicle id="S_N_253" type="car" route="S_N" depart="253" departLane="random"/>
    <vehicle id="S_N_254" type="car" route="S_N" depart="254" departLane="random"/>
    <vehicle id="S_N_255" type="car" route="S_N" depart="255" departLane="random"/>
    <vehicle id="S_N_256" type="car" route="S_N" depart="256" departLane="random"/>
    <vehicle id="S_N_257" type="car" route="S_N" depart="257" departLane="random"/>
    <vehicle id="S_N_258" type="car" route="S_N" depart="258" departLane="random"/>
    <vehicle id="S_N_259" type="car" route="S_N" depart="259" departLane="random"/>
    <vehicle id="S_N_260" type="car" route="S_N" depart="260" departLane="random"/>
    <vehicle id="S_N_261" type="car" route="S_N" depart="261" departLane="random"/>
    <vehicle id="S_N_262" type="car" route="S_N" depart="262" departLane="random"/>
    <vehicle id="S_N_263" type="car" route="S_N" depart="263" departLane="random"/>
    <vehicle id="S_N_264" type="car" route="S_N" depart="264" departLane="random"/>
    <vehicle id="S_N_265" type="car" route="S_N" depart="265" departLane="random"/>
    <vehicle id="S_N_266" type="car" route="S_N" depart="266" departLane="random"/>
    <vehicle id="S_N_267" type="car" route="S_N" depart="267" departLane="random"/>
    <vehicle id="S_N_268" type="car" route="S_N" depart="268" departLane="random"/>
    <vehicle id="S_N_269" type="car" route="S_N" depart="269" departLane="random"/>
    <vehicle id="S_N_270" type="car" route="S_N" depart="270" departLane="random"/>
    <vehicle id="S_N_271" type="car" route="S_N" depart="271" departLane="random"/>
    <vehicle id="S_N_272" type="car" route="S_N" depart="272" departLane="random"/>
    <vehicle id="S_N_273" type="car" route="S_N" depart="273" departLane="random"/>
    <vehicle id="S_N_274" type="car" route="S_N" depart="274" departLane="random"/>
    <vehicle id="S_N_275" type="car" route="S_N" depart="275" departLane="random"/>
    <vehicle id="S_N_276" type="car" route="S_N" depart="276" departLane="random"/>
    <vehicle id="S_N_277" type="car" route="S_N" depart="277" departLane="random"/>
    <vehicle id="S_N_278" type="car" route="S_N" depart="278" departLane="random"/>
    <vehicle id="S_N_279" type="car" route="S_N" depart="279" departLane="random"/>
    <vehicle id="S_N_280" type="car" route="S_N" depart="280" departLane="random"/>
    <vehicle id="S_N_281" type="car" route="S_N" depart="281" departLane="random"/>
    <vehicle id="S_N_282" type="car" route="S_N" depart="282" departLane="random"/>
    <vehicle id="S_N_283" type="car" route="S_N" depart="283" departLane="random"/>
    <vehicle id="S_N_284" type="car" route="S_N" depart="284" departLane="random"/>
    <vehicle id="S_N_285" type="car" route="S_N" depart="285" departLane="random"/>
    <vehicle id="S_N_286" type="car" route="S_N" depart="286" departLane="random"/>
    <vehicle id="S_N_287" type="car" route="S_N" depart="287" departLane="random"/>
    <vehicle id="S_N_288" type="car" route="S_N" depart="288" departLane="random"/>
    <vehicle id="S_N_289" type="car" route="S_N" depart="289" departLane="random"/>
    <vehicle id="S_N_290" type="car" route="S_N" depart="290" departLane="random"/>
    <vehicle id="S_N_291" type="car" route="S_N" depart="291" departLane="random"/>
    <vehicle id="S_N_292" type="car" route="S_N" depart="292" departLane="random"/>
    <vehicle id="S_N_293" type="car" route="S_N" depart="293" departLane="random"/>
    <vehicle id="S_N_294" type="car" route="S_N" depart="294" departLane="random"/>
    <vehicle id="S_N_295" type="car" route="S_N" depart="295" departLane="random"/>
    <vehicle id="S_N_296" type="car" route="S_N" depart="296" departLane="random"/>
    <vehicle id="S_N_297" type="car" route="S_N" depart="297" departLane="random"/>
    <vehicle id="S_N_298" type="car" route="S_N" depart="298" departLane="random"/>
    <vehicle id="S_N_299" type="car" route="S_N" depart="299" departLane="random"/>
    <vehicle id="S_N_300" type="car" route="S_N" depart="300" departLane="random"/>
    <vehicle id="S_N_301" type="car" route="S_N" depart="301" departLane="random"/>
    <vehicle id="S_N_302" type="car" route="S_N" depart="302" departLane="random"/>
    <vehicle id="S_N_303" type="car" route="S_N" depart="303" departLane="random"/>
    <vehicle id="S_N_304" type="car" route="S_N" depart="304" departLane="random"/>
    <vehicle id="S_N_305" type="car" route="S_N" depart="305" departLane="random"/>
    <vehicle id="S_N_306" type="car" route="S_N" depart="306" departLane="random"/>
    <vehicle id="S_N_307" type="car" route="S_N" depart="307" departLane="random"/>
    <vehicle id="S_N_308" type="car" route="S_N" depart="308" departLane="random"/>
    <vehicle id="S_N_309" type="car" route="S_N" depart="309" departLane="random"/>
    <vehicle id="S_N_310" type="car" route="S_N" depart="310" departLane="random"/>
    <vehicle id="S_N_311" type="car" route="S_N" depart="311" departLane="random"/>
    <vehicle id="S_N_312" type="car" route="S_N" depart="312" departLane="random"/>
    <vehicle id="S_N_313" type="car" route="S_N" depart="313" departLane="random"/>
    <vehicle id="S_N_314" type="car" route="S_N" depart="314" departLane="random"/>
    <vehicle id="S_N_315" type="car" route="S_N" depart="315" departLane="random"/>
    <vehicle id="S_N_316" type="car" route="S_N" depart="316" departLane="random"/>
    <vehicle id="S_N_317" type="car" route="S_N" depart="317" departLane="random"/>
    <vehicle id="S_N_318" type="car" route="S_N" depart="318" departLane="random"/>
    <vehicle id="S_N_319" type="car" route="S_N" depart="319" departLane="random"/>
    <vehicle id="S_N_320" type="car" route="S_N" depart="320" departLane="random"/>
    <vehicle id="S_N_321" type="car" route="S_N" depart="321" departLane="random"/>
    <vehicle id="S_N_322" type="car" route="S_N" depart="322" departLane="random"/>
    <vehicle id="S_N_323" type="car" route="S_N" depart="323" departLane="random"/>
    <vehicle id="S_N_324" type="car" route="S_N" depart="324" departLane="random"/>
    <vehicle id="S_N_325" type="car" route="S_N" depart="325" departLane="random"/>
    <vehicle id="S_N_326" type="car" route="S_N" depart="326" departLane="random"/>
    <vehicle id="S_N_327" type="car" route="S_N" depart="327" departLane="random"/>
    <vehicle id="S_N_328" type="car" route="S_N" depart="328" departLane="random"/>
    <vehicle id="S_N_329" type="car" route="S_N" depart="329" departLane="random"/>
    <vehicle id="S_N_330" type="car" route="S_N" depart="330" departLane="random"/>
    <vehicle id="S_N_331" type="car" route="S_N" depart="331" departLane="random"/>
    <vehicle id="S_N_332" type="car" route="S_N" depart="332" departLane="random"/>
    <vehicle id="S_N_333" type="car" route="S_N" depart="333" departLane="random"/>
    <vehicle id="S_N_334" type="car" route="S_N" depart="334" departLane="random"/>
    <vehicle id="S_N_335" type="car" route="S_N" depart="335" departLane="random"/>
    <vehicle id="S_N_336" type="car" route="S_N" depart="336" departLane="random"/>
    <vehicle id="S_N_337" type="car" route="S_N" depart="337" departLane="random"/>
    <vehicle id="S_N_338" type="car" route="S_N" depart="338" departLane="random"/>
    <vehicle id="S_N_339" type="car" route="S_N" depart="339" departLane="random"/>
    <vehicle id="S_N_340" type="car" route="S_N" depart="340" departLane="random"/>
    <vehicle id="S_N_341" type="car" route="S_N" depart="341" departLane="random"/>
    <vehicle id="S_N_342" type="car" route="S_N" depart="342" departLane="random"/>
    <vehicle id="S_N_343" type="car" route="S_N" depart="343" departLane="random"/>
    <vehicle id="S_N_344" type="car" route="S_N" depart="344" departLane="random"/>
    <vehicle id="S_N_345" type="car" route="S_N" depart="345" departLane="random"/>
    <vehicle id="S_N_346" type="car" route="S_N" depart="346" departLane="random"/>
    <vehicle id="S_N_347" type="car" route="S_N" depart="347" departLane="random"/>
    <vehicle id="S_N_348" type="car" route="S_N" depart="348" departLane="random"/>
    <vehicle id="S_N_349" type="car" route="S_N" depart="349" departLane="random"/>
    <vehicle id="S_N_350" type="car" route="S_N" depart="350" departLane="random"/>