<routes>
            <vType id="car" accel="0.8" decel="4.5" sigma="0.5" length="5" minGap="2.5" maxSpeed="16.67" guiShape="passenger"/>
            
            <route id="E_N" edges="1i 2o"/>
            <route id="E_W" edges="1i 3o"/>
            <route id="E_S" edges="1i 4o"/>
            <route id="N_W" edges="2i 3o"/>
            <route id="N_S" edges="2i 4o"/>
            <route id="N_E" edges="2i 1o"/>
            <route id="W_S" edges="3i 4o"/>
            <route id="W_E" edges="3i 1o"/>
            <route id="W_N" edges="3i 2o"/>
            <route id="S_E" edges="4i 1o"/>
            <route id="S_N" edges="4i 2o"/>
            <route id="S_W" edges="4i 3o"/>
            
    <vehicle id="S_W_1" type="car" route="S_W" depart="1" departLane="random"/>
    <vehicle id="N_S_3" type="car" route="N_S" depart="3" departLane="random"/>
    <vehicle id="N_W_5" type="car" route="N_W" depart="5" departLane="random"/>
    <vehicle id="N_S_7" type="car" route="N_S" depart="7" departLane="random"/>
    <vehicle id="N_W_9" type="car" route="N_W" depart="9" departLane="random"/>
    <vehicle id="W_S_11" type="car" route="W_S" depart="11" departLane="random"/>
    <vehicle id="E_W_13" type="car" route="E_W" depart="13" departLane="random"/>
    <vehicle id="N_E_15" type="car" route="N_E" depart="15" departLane="random"/>
    <vehicle id="N_S_17" type="car" route="N_S" depart="17" departLane="random"/>
    <vehicle id="S_N_19" type="car" route="S_N" depart="19" departLane="random"/>
    <vehicle id="N_E_21" type="car" route="N_E" depart="21" departLane="random"/>
    <vehicle id="S_E_23" type="car" route="S_E" depart="23" departLane="random"/>
    <vehicle id="W_E_25" type="car" route="W_E" depart="25" departLane="random"/>
    <vehicle id="W_S_27" type="car" route="W_S" depart="27" departLane="random"/>
    <vehicle id="E_W_29" type="car" route="E_W" depart="29" departLane="random"/>
    <vehicle id="S_W_31" type="car" route="S_W" depart="31" departLane="random"/>
    <vehicle id="S_N_33" type="car" route="S_N" depart="33" departLane="random"/>
    <vehicle id="W_N_35" type="car" route="W_N" depart="35" departLane="random"/>
    <vehicle id="S_N_37" type="car" route="S_N" depart="37" departLane="random"/>
    <vehicle id="E_S_39" type="car" route="E_S" depart="39" departLane="random"/>
    <vehicle id="N_E_41" type="car" route="N_E" depart="41" departLane="random"/>
    <vehicle id="S_N_43" type="car" route="S_N" depart="43" departLane="random"/>
    <vehicle id="E_N_45" type="car" route="E_N" depart="45" departLane="random"/>
    <vehicle id="E_N_47" type="car" route="E_N" depart="47" departLane="random"/>
    <vehicle id="E_S_49" type="car" route="E_S" depart="49" departLane="random"/>
    <vehicle id="N_S_51" type="car" route="N_S" depart="51" departLane="random"/>
    <vehicle id="E_S_53" type="car" route="E_S" depart="53" departLane="random"/>
    <vehicle id="E_S_55" type="car" route="E_S" depart="55" departLane="random"/>
    <vehicle id="E_N_57" type="car" route="E_N" depart="57" departLane="random"/>
    <vehicle id="S_W_59" type="car" route="S_W" depart="59" departLane="random"/>
    <vehicle id="W_S_61" type="car" route="W_S" depart="61" departLane="random"/>
    <vehicle id="W_S_63" type="car" route="W_S" depart="63" departLane="random"/>
    <vehicle id="N_E_65" type="car" route="N_E" depart="65" departLane="random"/>
    <vehicle id="S_N_67" type="car" route="S_N" depart="67" departLane="random"/>
    <vehicle id="W_E_69" type="car" route="W_E" depart="69" departLane="random"/>
    <vehicle id="W_N_71" type="car" route="W_N" depart="71" departLane="random"/>
    <vehicle id="W_N_73" type="car" route="W_N" depart="73" departLane="random"/>
    <vehicle id="W_S_75" type="car" route="W_S" depart="75" departLane="random"/>
    <vehicle id="N_E_77" type="car" route="N_E" depart="77" departLane="random"/>
    <vehicle id="N_E_79" type="car" route="N_E" depart="79" departLane="random"/>
    <vehicle id="W_S_81" type="car" route="W_S" depart="81" departLane="random"/>
    <vehicle id="S_E_83" type="car" route="S_E" depart="83" departLane="random"/>
    <vehicle id="N_S_85" type="car" route="N_S" depart="85" departLane="random"/>
    <vehicle id="W_S_87" type="car" route="W_S" depart="87" departLane="random"/>
    <vehicle id="S_W_89" type="car" route="S_W" depart="89" departLane="random"/>
    <vehicle id="E_S_91" type="car" route="E_S" depart="91" departLane="random"/>
    <vehicle id="S_E_93" type="car" route="S_E" depart="93" departLane="random"/>
    <vehicle id="E_W_95" type="car" route="E_W" depart="95" departLane="random"/>
    <vehicle id="S_N_97" type="car" route="S_N" depart="97" departLane="random"/>
    <vehicle id="N_S_99" type="car" route="N_S" depart="99" departLane="random"/>
    <vehicle id="W_N_101" type="car" route="W_N" depart="101" departLane="random"/>
    <vehicle id="N_S_103" type="car" route="N_S" depart="103" departLane="random"/>
    <vehicle id="E_S_105" type="car" route="E_S" depart="105" departLane="random"/>
    <vehicle id="N_S_107" type="car" route="N_S" depart="107" departLane="random"/>
    <vehicle id="W_E_109" type="car" route="W_E" depart="109" departLane="random"/>
    <vehicle id="E_W_111" type="car" route="E_W" depart="111" departLane="random"/>
    <vehicle id="E_W_113" type="car" route="E_W" depart="113" departLane="random"/>
    <vehicle id="N_W_115" type="car" route="N_W" depart="115" departLane="random"/>
    <vehicle id="S_W_117" type="car" route="S_W" depart="117" departLane="random"/>
    <vehicle id="N_E_119" type="car" route="N_E" depart="119" departLane="random"/>
    <vehicle id="N_E_121" type="car" route="N_E" depart="121" departLane="random"/>
    <vehicle id="E_N_123" type="car" route="E_N" depart="123" departLane="random"/>
    <vehicle id="S_W_125" type="car" route="S_W" depart="125" departLane="random"/>
    <vehicle id="W_N_127" type="car" route="W_N" depart="127" departLane="random"/>
    <vehicle id="N_W_129" type="car" route="N_W" depart="129" departLane="random"/>
    <vehicle id="W_S_131" type="car" route="W_S" depart="131" departLane="random"/>
    <vehicle id="N_S_133" type="car" route="N_S" depart="133" departLane="random"/>
    <vehicle id="E_N_135" type="car" route="E_N" depart="135" departLane="random"/>
    <vehicle id="E_W_137" type="car" route="E_W" depart="137" departLane="random"/>
    <vehicle id="W_S_139" type="car" route="W_S" depart="139" departLane="random"/>
    <vehicle id="E_S_141" type="car" route="E_S" depart="141" departLane="random"/>
    <vehicle id="S_W_143" type="car" route="S_W" depart="143" departLane="random"/>
    <vehicle id="S_N_145" type="car" route="S_N" depart="145" departLane="random"/>
    <vehicle id="W_S_147" type="car" route="W_S" depart="147" departLane="random"/>
    <vehicle id="N_E_149" type="car" route="N_E" depart="149" departLane="random"/>
    <vehicle id="E_S_151" type="car" route="E_S" depart="151" departLane="random"/>
    <vehicle id="W_S_153" type="car" route="W_S" depart="153" departLane="random"/>
    <vehicle id="S_W_155" type="car" route="S_W" depart="155" departLane="random"/>
    <vehicle id="W_E_157" type="car" route="W_E" depart="157" departLane="random"/>
    <vehicle id="N_S_159" type="car" route="N_S" depart="159" departLane="random"/>
    <vehicle id="W_N_161" type="car" route="W_N" depart="161" departLane="random"/>
    <vehicle id="N_S_163" type="car" route="N_S" depart="163" departLane="random"/>
    <vehicle id="E_W_165" type="car" route="E_W" depart="165" departLane="random"/>
    <vehicle id="N_S_167" type="car" route="N_S" depart="167" departLane="random"/>
    <vehicle id="N_S_169" type="car" route="N_S" depart="169" departLane="random"/>
    <vehicle id="N_S_171" type="car" route="N_S" depart="171" departLane="random"/>
    <vehicle id="N_S_173" type="car" route="N_S" depart="173" departLane="random"/>
    <vehicle id="W_S_175" type="car" route="W_S" depart="175" departLane="random"/>
    <vehicle id="E_N_177" type="car" route="E_N" depart="177" departLane="random"/>
    <vehicle id="N_W_179" type="car" route="N_W" depart="179" departLane="random"/>
    <vehicle id="N_E_181" type="car" route="N_E" depart="181" departLane="random"/>
    <vehicle id="E_S_183" type="car" route="E_S" depart="183" departLane="random"/>
    <vehicle id="N_S_185" type="car" route="N_S" depart="185" departLane="random"/>
    <vehicle id="N_W_187" type="car" route="N_W" depart="187" departLane="random"/>
    <vehicle id="E_N_189" type="car" route="E_N" depart="189" departLane="random"/>
    <vehicle id="N_E_191" type="car" route="N_E" depart="191" departLane="random"/>
    <vehicle id="E_S_193" type="car" route="E_S" depart="193" departLane="random"/>
    <vehicle id="N_S_195" type="car" route="N_S" depart="195" departLane="random"/>
    <vehicle id="W_S_197" type="car" route="W_S" depart="197" departLane="random"/>
    <vehicle id="W_S_199" type="car" route="W_S" depart="199" departLane="random"/>
    <vehicle id="S_N_201" type="car" route="S_N" depart="201" departLane="random"/>
    <vehicle id="N_S_203" type="car" route="N_S" depart="203" departLane="random"/>
    <vehicle id="N_S_205" type="car" route="N_S" depart="205" departLane="random"/>
    <vehicle id="S_N_207" type="car" route="S_N" depart="207" departLane="random"/>
    <vehicle id="E_W_209" type="car" route="E_W" depart="209" departLane="random"/>
    <vehicle id="E_W_211" type="car" route="E_W" depart="211" departLane="random"/>
    <vehicle id="S_E_213" type="car" route="S_E" depart="213" departLane="random"/>
    <vehicle id="N_E_215" type="car" route="N_E" depart="215" departLane="random"/>
    <vehicle id="N_W_217" type="car" route="N_W" depart="217" departLane="random"/>
    <vehicle id="S_E_219" type="car" route="S_E" depart="219" departLane="random"/>
    <vehicle id="N_S_221" type="car" route="N_S" depart="221" departLane="random"/>
    <vehicle id="E_N_223" type="car" route="E_N" depart="223" departLane="random"/>
    <vehicle id="S_N_225" type="car" route="S_N" depart="225" departLane="random"/>
    <vehicle id="N_S_227" type="car" route="N_S" depart="227" departLane="random"/>
    <vehicle id="E_S_229" type="car" route="E_S" depart="229" departLane="random"/>
    <vehicle id="W_S_231" type="car" route="W_S" depart="231" departLane="random"/>
    <vehicle id="W_E_233" type="car" route="W_E" depart="233" departLane="random"/>
    <vehicle id="S_N_235" type="car" route="S_N" depart="235" departLane="random"/>
    <vehicle id="W_E_237" type="car" route="W_E" depart="237" departLane="random"/>
    <vehicle id="N_E_239" type="car" route="N_E" depart="239" departLane="random"/>
    <vehicle id="E_W_241" type="car" route="E_W" depart="241" departLane="random"/>
    <vehicle id="E_N_243" type="car" route="E_N" depart="243" departLane="random"/>
    <vehicle id="N_S_245" type="car" route="N_S" depart="245" departLane="random"/>
    <vehicle id="W_E_247" type="car" route="W_E" depart="247" departLane="random"/>
    <vehicle id="S_N_249" type="car" route="S_N" depart="249" departLane="random"/>
    <vehicle id="W_E_251" type="car" route="W_E" depart="251" departLane="random"/>
    <vehicle id="N_E_253" type="car" route="N_E" depart="253" departLane="random"/>
    <vehicle id="N_W_255" type="car" route="N_W" depart="255" departLane="random"/>
    <vehicle id="S_W_257" type="car" route="S_W" depart="257" departLane="random"/>
    <vehicle id="W_N_259" type="car" route="W_N" depart="259" departLane="random"/>
    <vehicle id="W_S_261" type="car" route="W_S" depart="261" departLane="random"/>
    <vehicle id="E_S_263" type="car" route="E_S" depart="263" departLane="random"/>
    <vehicle id="S_N_265" type="car" route="S_N" depart="265" departLane="random"/>
    <vehicle id="W_E_267" type="car" route="W_E" depart="267" departLane="random"/>
    <vehicle id="S_E_269" type="car" route="S_E" depart="269" departLane="random"/>
    <vehicle id="N_S_271" type="car" route="N_S" depart="271" departLane="random"/>
    <vehicle id="W_S_273" type="car" route="W_S" depart="273" departLane="random"/>
    <vehicle id="W_E_275" type="car" route="W_E" depart="275" departLane="random"/>
    <vehicle id="N_S_277" type="car" route="N_S" depart="277" departLane="random"/>
    <vehicle id="W_S_279" type="car" route="W_S" depart="279" departLane="random"/>
    <vehicle id="S_N_281" type="car" route="S_N" depart="281" departLane="random"/>
    <vehicle id="N_E_283" type="car" route="N_E" depart="283" departLane="random"/>
    <vehicle id="S_W_285" type="car" route="S_W" depart="285" departLane="random"/>
    <vehicle id="E_W_287" type="car" route="E_W" depart="287" departLane="random"/>
    <vehicle id="E_W_289" type="car" route="E_W" depart="289" departLane="random"/>
    <vehicle id="W_S_291" type="car" route="W_S" depart="291" departLane="random"/>
    <vehicle id="E_W_293" type="car" route="E_W" depart="293" departLane="random"/>
    <vehicle id="N_E_295" type="car" route="N_E" depart="295" departLane="random"/>
    <vehicle id="S_E_297" type="car" route="S_E" depart="297" departLane="random"/>
    <vehicle id="S_W_299" type="car" route="S_W" depart="299" departLane="random"/>
    <vehicle id="S_W_301" type="car" route="S_W" depart="301" departLane="random"/>
    <vehicle id="W_E_303" type="car" route="W_E" depart="303" departLane="random"/>
    <vehicle id="E_W_305" type="car" route="E_W" depart="305" departLane="random"/>
    <vehicle id="N_S_307" type="car" route="N_S" depart="307" departLane="random"/>
    <vehicle id="S_N_309" type="car" route="S_N" depart="309" departLane="random"/>
    <vehicle id="E_W_311" type="car" route="E_W" depart="311" departLane="random"/>
    <vehicle id="N_W_313" type="car" route="N_W" depart="313" departLane="random"/>
    <vehicle id="W_E_315" type="car" route="W_E" depart="315" departLane="random"/>
    <vehicle id="W_S_317" type="car" route="W_S" depart="317" departLane="random"/>
    <vehicle id="E_S_319" type="car" route="E_S" depart="319" departLane="random"/>
    <vehicle id="N_E_321" type="car" route="N_E" depart="321" departLane="random"/>
    <vehicle id="N_S_323" type="car" route="N_S" depart="323" departLane="random"/>
    <vehicle id="N_E_325" type="car" route="N_E" depart="325" departLane="random"/>
    <vehicle id="W_S_327" type="car" route="W_S" depart="327" departLane="random"/>
    <vehicle id="S_W_329" type="car" route="S_W" depart="329" departLane="random"/>
    <vehicle id="S_W_331" type="car" route="S_W" depart="331" departLane="random"/>
    <vehicle id="N_S_333" type="car" route="N_S" depart="333" departLane="random"/>
    <vehicle id="W_E_335" type="car" route="W_E" depart="335" departLane="random"/>
    <vehicle id="E_S_337" type="car" route="E_S" depart="337" departLane="random"/>
    <vehicle id="E_N_339" type="car" route="E_N" depart="339" departLane="random"/>
    <vehicle id="E_W_341" type="car" route="E_W" depart="341" departLane="random"/>
    <vehicle id="W_N_343" type="car" route="W_N" depart="343" departLane="random"/>
    <vehicle id="S_N_345" type="car" route="S_N" depart="345" departLane="random"/>
    <vehicle id="N_S_347" type="car" route="N_S" depart="347" departLane="random"/>
    <vehicle id="S_N_349" type="car" route="S_N" depart="349" departLane="random"/>
    <vehicle id="S_W_351" type="car" route="S_W" depart="351" departLane="random"/>
    <vehicle id="W_S_353" type="car" route="W_S" depart="353" departLane="random"/>
    <vehicle id="E_S_355" type="car" route="E_S" depart="355" departLane="random"/>
    <vehicle id="W_S_357" type="car" route="W_S" depart="357" departLane="random"/>
    <vehicle id="N_S_359" type="car" route="N_S" depart="359" departLane="random"/>
    <vehicle id="E_S_361" type="car" route="E_S" depart="361" departLane="random"/>
    <vehicle id="S_E_363" type="car" route="S_E" depart="363" departLane="random"/>
    <vehicle id="N_E_365" type="car" route="N_E" depart="365" departLane="random"/>
    <vehicle id="E_W_367" type="car" route="E_W" depart="367" departLane="random"/>
    <vehicle id="S_N_369" type="car" route="S_N" depart="369" departLane="random"/>
    <vehicle id="S_E_371" type="car" route="S_E" depart="371" departLane="random"/>
    <vehicle id="W_N_373" type="car" route="W_N" depart="373" departLane="random"/>
    <vehicle id="W_E_375" type="car" route="W_E" depart="375" departLane="random"/>
    <vehicle id="N_E_377" type="car" route="N_E" depart="377" departLane="random"/>
    <vehicle id="S_E_379" type="car" route="S_E" depart="379" departLane="random"/>
    <vehicle id="S_N_381" type="car" route="S_N" depart="381" departLane="random"/>
    <vehicle id="E_S_383" type="car" route="E_S" depart="383" departLane="random"/>
    <vehicle id="W_N_385" type="car" route="W_N" depart="385" departLane="random"/>
    <vehicle id="E_N_387" type="car" route="E_N" depart="387" departLane="random"/>
    <vehicle id="N_W_389" type="car" route="N_W" depart="389" departLane="random"/>
    <vehicle id="W_N_391" type="car" route="W_N" depart="391" departLane="random"/>
    <vehicle id="N_E_393" type="car" route="N_E" depart="393" departLane="random"/>
    <vehicle id="E_S_395" type="car" route="E_S" depart="395" departLane="random"/>
    <vehicle id="W_E_397" type="car" route="W_E" depart="397" departLane="random"/>
    <vehicle id="W_E_399" type="car" route="W_E" depart="399" departLane="random"/>
    <vehicle id="W_E_401" type="car" route="W_E" depart="401" departLane="random"/>
    <vehicle id="S_N_403" type="car" route="S_N" depart="403" departLane="random"/>
    <vehicle id="W_E_405" type="car" route="W_E" depart="405" departLane="random"/>
    <vehicle id="E_N_407" type="car" route="E_N" depart="407" departLane="random"/>
    <vehicle id="E_S_409" type="car" route="E_S" depart="409" departLane="random"/>
    <vehicle id="S_N_411" type="car" route="S_N" depart="411" departLane="random"/>
    <vehicle id="W_S_413" type="car" route="W_S" depart="413" departLane="random"/>
    <vehicle id="N_E_415" type="car" route="N_E" depart="415" departLane="random"/>
    <vehicle id="S_N_417" type="car" route="S_N" depart="417" departLane="random"/>
    <vehicle id="S_W_419" type="car" route="S_W" depart="419" departLane="random"/>
    <vehicle id="W_E_421" type="car" route="W_E" depart="421" departLane="random"/>
    <vehicle id="S_N_423" type="car" route="S_N" depart="423" departLane="random"/>
    <vehicle id="W_S_425" type="car" route="W_S" depart="425" departLane="random"/>
    <vehicle id="N_S_427" type="car" route="N_S" depart="427" departLane="random"/>
    <vehicle id="N_S_429" type="car" route="N_S" depart="429" departLane="random"/>
    <vehicle id="S_E_431" type="car" route="S_E" depart="431" departLane="random"/>
    <vehicle id="S_E_433" type="car" route="S_E" depart="433" departLane="random"/>
    <vehicle id="S_W_435" type="car" route="S_W" depart="435" departLane="random"/>
    <vehicle id="E_N_437" type="car" route="E_N" depart="437" departLane="random"/>
    <vehicle id="E_W_439" type="car" route="E_W" depart="439" departLane="random"/>
    <vehicle id="E_N_441" type="car" route="E_N" depart="441" departLane="random"/>
    <vehicle id="E_S_443" type="car" route="E_S" depart="443" departLane="random"/>
    <vehicle id="E_W_445" type="car" route="E_W" depart="445" departLane="random"/>
    <vehicle id="N_S_447" type="car" route="N_S" depart="447" departLane="random"/>
    <vehicle id="E_S_449" type="car" route="E_S" depart="449" departLane="random"/>
    <vehicle id="N_S_451" type="car" route="N_S" depart="451" departLane="random"/>
    <vehicle id="E_N_453" type="car" route="E_N" depart="453" departLane="random"/>
    <vehicle id="N_S_455" type="car" route="N_S" depart="455" departLane="random"/>
    <vehicle id="E_W_457" type="car" route="E_W" depart="457" departLane="random"/>
    <vehicle id="N_W_459" type="car" route="N_W" depart="459" departLane="random"/>
    <vehicle id="E_N_461" type="car" route="E_N" depart="461" departLane="random"/>
    <vehicle id="W_S_463" type="car" route="W_S" depart="463" departLane="random"/>
    <vehicle id="N_S_465" type="car" route="N_S" depart="465" departLane="random"/>
    <vehicle id="W_N_467" type="car" route="W_N" depart="467" departLane="random"/>
    <vehicle id="E_S_469" type="car" route="E_S" depart="469" departLane="random"/>
    <vehicle id="W_S_471" type="car" route="W_S" depart="471" departLane="random"/>
    <vehicle id="W_N_473" type="car" route="W_N" depart="473" departLane="random"/>
    <vehicle id="E_W_475" type="car" route="E_W" depart="475" departLane="random"/>
    <vehicle id="E_W_477" type="car" route="E_W" depart="477" departLane="random"/>
    <vehicle id="W_N_479" type="car" route="W_N" depart="479" departLane="random"/>
    <vehicle id="E_S_481" type="car" route="E_S" depart="481" departLane="random"/>
    <vehicle id="S_E_483" type="car" route="S_E" depart="483" departLane="random"/>
    <vehicle id="S_N_485" type="car" route="S_N" depart="485" departLane="random"/>
    <vehicle id="W_N_487" type="car" route="W_N" depart="487" departLane="random"/>
    <vehicle id="S_N_489" type="car" route="S_N" depart="489" departLane="random"/>
    <vehicle id="W_N_491" type="car" route="W_N" depart="491" departLane="random"/>
    <vehicle id="E_S_493" type="car" route="E_S" depart="493" departLane="random"/>
    <vehicle id="S_N_495" type="car" route="S_N" depart="495" departLane="random"/>
    <vehicle id="W_E_497" type="car" route="W_E" depart="497" departLane="random"/>
    <vehicle id="N_S_499" type="car" route="N_S" depart="499" departLane="random"/>
    <vehicle id="N_S_501" type="car" route="N_S" depart="501" departLane="random"/>
    <vehicle id="N_W_503" type="car" route="N_W" depart="503" departLane="random"/>
    <vehicle id="W_E_505" type="car" route="W_E" depart="505" departLane="random"/>
    <vehicle id="E_W_507" type="car" route="E_W" depart="507" departLane="random"/>
    <vehicle id="W_N_509" type="car" route="W_N" depart="509" departLane="random"/>
    <vehicle id="W_S_511" type="car" route="W_S" depart="511" departLane="random"/>
    <vehicle id="E_W_513" type="car" route="E_W" depart="513" departLane="random"/>
    <vehicle id="N_S_515" type="car" route="N_S" depart="515" departLane="random"/>
    <vehicle id="W_E_517" type="car" route="W_E" depart="517" departLane="random"/>
    <vehicle id="E_N_519" type="car" route="E_N" depart="519" departLane="random"/>
    <vehicle id="N_S_521" type="car" route="N_S" depart="521" departLane="random"/>
    <vehicle id="E_S_523" type="car" route="E_S" depart="523" departLane="random"/>
    <vehicle id="N_E_525" type="car" route="N_E" depart="525" departLane="random"/>
    <vehicle id="W_S_527" type="car" route="W_S" depart="527" departLane="random"/>
    <vehicle id="N_E_529" type="car" route="N_E" depart="529" departLane="random"/>
    <vehicle id="N_E_531" type="car" route="N_E" depart="531" departLane="random"/>
    <vehicle id="S_N_533" type="car" route="S_N" depart="533" departLane="random"/>
    <vehicle id="W_E_535" type="car" route="W_E" depart="535" departLane="random"/>
    <vehicle id="N_W_537" type="car" route="N_W" depart="537" departLane="random"/>
    <vehicle id="E_W_539" type="car" route="E_W" depart="539" departLane="random"/>
    <vehicle id="N_E_541" type="car" route="N_E" depart="541" departLane="random"/>
    <vehicle id="N_E_543" type="car" route="N_E" depart="543" departLane="random"/>
    <vehicle id="N_W_545" type="car" route="N_W" depart="545" departLane="random"/>
    <vehicle id="W_E_547" type="car" route="W_E" depart="547" departLane="random"/>
    <vehicle id="N_S_549" type="car" route="N_S" depart="549" departLane="random"/>
    <vehicle id="S_N_551" type="car" route="S_N" depart="551" departLane="random"/>
    <vehicle id="S_W_553" type="car" route="S_W" depart="553" departLane="random"/>
    <vehicle id="N_S_555" type="car" route="N_S" depart="555" departLane="random"/>
    <vehicle id="E_W_557" type="car" route="E_W" depart="557" departLane="random"/>
    <vehicle id="W_E_559" type="car" route="W_E" depart="559" departLane="random"/>
    <vehicle id="E_W_561" type="car" route="E_W" depart="561" departLane="random"/>
    <vehicle id="E_S_563" type="car" route="E_S" depart="563" departLane="random"/>
    <vehicle id="N_W_565" type="car" route="N_W" depart="565" departLane="random"/>
    <vehicle id="E_S_567" type="car" route="E_S" depart="567" departLane="random"/>
    <vehicle id="N_S_569" type="car" route="N_S" depart="569" departLane="random"/>
    <vehicle id="S_E_571" type="car" route="S_E" depart="571" departLane="random"/>
    <vehicle id="W_N_573" type="car" route="W_N" depart="573" departLane="random"/>
    <vehicle id="S_W_575" type="car" route="S_W" depart="575" departLane="random"/>
    <vehicle id="S_N_577" type="car" route="S_N" depart="577" departLane="random"/>
    <vehicle id="E_N_579" type="car" route="E_N" depart="579" departLane="random"/>
    <vehicle id="E_N_581" type="car" route="E_N" depart="581" departLane="random"/>
    <vehicle id="E_W_583" type="car" route="E_W" depart="583" departLane="random"/>
    <vehicle id="W_N_585" type="car" route="W_N" depart="585" departLane="random"/>
    <vehicle id="S_W_587" type="car" route="S_W" depart="587" departLane="random"/>
    <vehicle id="E_W_589" type="car" route="E_W" depart="589" departLane="random"/>
    <vehicle id="S_W_591" type="car" route="S_W" depart="591" departLane="random"/>
    <vehicle id="W_S_593" type="car" route="W_S" depart="593" departLane="random"/>
    <vehicle id="E_W_595" type="car" route="E_W" depart="595" departLane="random"/>
    <vehicle id="N_E_597" type="car" route="N_E" depart="597" departLane="random"/>
    <vehicle id="E_W_599" type="car" route="E_W" depart="599" departLane="random"/>
    <vehicle id="N_E_601" type="car" route="N_E" depart="601" departLane="random"/>
    <vehicle id="E_W_603" type="car" route="E_W" depart="603" departLane="random"/>
    <vehicle id="S_W_605" type="car" route="S_W" depart="605" departLane="random"/>
    <vehicle id="W_E_607" type="car" route="W_E" depart="607" departLane="random"/>
    <vehicle id="E_N_609" type="car" route="E_N" depart="609" departLane="random"/>
    <vehicle id="E_W_611" type="car" route="E_W" depart="611" departLane="random"/>
    <vehicle id="N_S_613" type="car" route="N_S" depart="613" departLane="random"/>
    <vehicle id="N_S_615" type="car" route="N_S" depart="615" departLane="random"/>
    <vehicle id="S_N_617" type="car" route="S_N" depart="617" departLane="random"/>
    <vehicle id="N_S_619" type="car" route="N_S" depart="619" departLane="random"/>
    <vehicle id="E_N_621" type="car" route="E_N" depart="621" departLane="random"/>
    <vehicle id="E_W_623" type="car" route="E_W" depart="623" departLane="random"/>
    <vehicle id="W_S_625" type="car" route="W_S" depart="625" departLane="random"/>
    <vehicle id="N_E_627" type="car" route="N_E" depart="627" departLane="random"/>
    <vehicle id="E_W_629" type="car" route="E_W" depart="629" departLane="random"/>
    <vehicle id="N_W_631" type="car" route="N_W" depart="631" departLane="random"/>
    <vehicle id="S_W_633" type="car" route="S_W" depart="633" departLane="random"/>
    <vehicle id="S_N_635" type="car" route="S_N" depart="635" departLane="random"/>
    <vehicle id="N_S_637" type="car" route="N_S" depart="637" departLane="random"/>
    <vehicle id="E_S_639" type="car" route="E_S" depart="639" departLane="random"/>
    <vehicle id="N_S_641" type="car" route="N_S" depart="641" departLane="random"/>
    <vehicle id="E_W_643" type="car" route="E_W" depart="643" departLane="random"/>
    <vehicle id="S_E_645" type="car" route="S_E" depart="645" departLane="random"/>
    <vehicle id="N_S_647" type="car" route="N_S" depart="647" departLane="random"/>
    <vehicle id="N_S_649" type="car" route="N_S" depart="649" departLane="random"/>
    <vehicle id="S_N_651" type="car" route="S_N" depart="651" departLane="random"/>
    <vehicle id="E_N_653" type="car" route="E_N" depart="653" departLane="random"/>
    <vehicle id="S_W_655" type="car" route="S_W" depart="655" departLane="random"/>
    <vehicle id="W_N_657" type="car" route="W_N" depart="657" departLane="random"/>
    <vehicle id="W_S_659" type="car" route="W_S" depart="659" departLane="random"/>
    <vehicle id="E_W_661" type="car" route="E_W" depart="661" departLane="random"/>
    <vehicle id="W_S_663" type="car" route="W_S" depart="663" departLane="random"/>
    <vehicle id="E_W_665" type="car" route="E_W" depart="665" departLane="random"/>
    <vehicle id="E_N_667" type="car" route="E_N" depart="667" departLane="random"/>
    <vehicle id="W_N_669" type="car" route="W_N" depart="669" departLane="random"/>
    <vehicle id="E_N_671" type="car" route="E_N" depart="671" departLane="random"/>
    <vehicle id="E_W_673" type="car" route="E_W" depart="673" departLane="random"/>
    <vehicle id="N_E_675" type="car" route="N_E" depart="675" departLane="random"/>
    <vehicle id="W_E_677" type="car" route="W_E" depart="677" departLane="random"/>
    <vehicle id="S_N_679" type="car" route="S_N" depart="679" departLane="random"/>
    <vehicle id="E_W_681" type="car" route="E_W" depart="681" departLane="random"/>
    <vehicle id="E_W_683" type="car" route="E_W" depart="683" departLane="random"/>
    <vehicle id="W_E_685" type="car" route="W_E" depart="685" departLane="random"/>
    <vehicle id="E_S_687" type="car" route="E_S" depart="687" departLane="random"/>
    <vehicle id="W_S_689" type="car" route="W_S" depart="689" departLane="random"/>
    <vehicle id="W_E_691" type="car" route="W_E" depart="691" departLane="random"/>
    <vehicle id="E_W_693" type="car" route="E_W" depart="693" departLane="random"/>
    <vehicle id="S_E_695" type="car" route="S_E" depart="695" departLane="random"/>
    <vehicle id="S_W_697" type="car" route="S_W" depart="697" departLane="random"/>
    <vehicle id="E_N_699" type="car" route="E_N" depart="699" departLane="random"/>