<routes> 
<vType accel="1.0" decel="4.5" id="standard_car" length="5.0" minGap="2.5" maxSpeed="25" sigma="0.5" />
<route id="E_N" edges="1i 2o"/>
<route id="E_W" edges="1i 3o"/>
<route id="E_S" edges="1i 4o"/>
<route id="N_W" edges="2i 3o"/>
<route id="N_S" edges="2i 4o"/>
<route id="N_E" edges="2i 1o"/>
<route id="W_S" edges="3i 4o"/>
<route id="W_E" edges="3i 1o"/>
<route id="W_N" edges="3i 2o"/>
<route id="S_E" edges="4i 1o"/>
<route id="S_N" edges="4i 2o"/>
<route id="S_W" edges="4i 3o"/>
<vehicle id="S_N_2" type="standard_car" route="S_N" depart="2" departLane="random" departSpeed="10" />
<vehicle id="W_E_6" type="standard_car" route="W_E" depart="6" departLane="random" departSpeed="10" />
<vehicle id="W_E_18" type="standard_car" route="W_E" depart="18" departLane="random" departSpeed="10" />
<vehicle id="W_E_19" type="standard_car" route="W_E" depart="19" departLane="random" departSpeed="10" />
<vehicle id="E_W_25" type="standard_car" route="E_W" depart="25" departLane="random" departSpeed="10" />
<vehicle id="E_S_25" type="standard_car" route="E_S" depart="25" departLane="random" departSpeed="10" />
<vehicle id="W_S_27" type="standard_car" route="W_S" depart="27" departLane="random" departSpeed="10" />
<vehicle id="E_W_28" type="standard_car" route="E_W" depart="28" departLane="random" departSpeed="10" />
<vehicle id="S_W_31" type="standard_car" route="S_W" depart="31" departLane="random" departSpeed="10" />
<vehicle id="N_S_32" type="standard_car" route="N_S" depart="32" departLane="random" departSpeed="10" />
<vehicle id="S_N_37" type="standard_car" route="S_N" depart="37" departLane="random" departSpeed="10" />
<vehicle id="S_N_38" type="standard_car" route="S_N" depart="38" departLane="random" departSpeed="10" />
<vehicle id="W_E_39" type="standard_car" route="W_E" depart="39" departLane="random" departSpeed="10" />
<vehicle id="S_N_39" type="standard_car" route="S_N" depart="39" departLane="random" departSpeed="10" />
<vehicle id="N_S_41" type="standard_car" route="N_S" depart="41" departLane="random" departSpeed="10" />
<vehicle id="W_E_41" type="standard_car" route="W_E" depart="41" departLane="random" departSpeed="10" />
<vehicle id="W_E_53" type="standard_car" route="W_E" depart="53" departLane="random" departSpeed="10" />
<vehicle id="S_E_54" type="standard_car" route="S_E" depart="54" departLane="random" departSpeed="10" />
<vehicle id="N_S_56" type="standard_car" route="N_S" depart="56" departLane="random" departSpeed="10" />
<vehicle id="E_N_60" type="standard_car" route="E_N" depart="60" departLane="random" departSpeed="10" />
<vehicle id="W_E_60" type="standard_car" route="W_E" depart="60" departLane="random" departSpeed="10" />
<vehicle id="N_S_61" type="standard_car" route="N_S" depart="61" departLane="random" departSpeed="10" />
<vehicle id="E_W_63" type="standard_car" route="E_W" depart="63" departLane="random" departSpeed="10" />
<vehicle id="E_W_65" type="standard_car" route="E_W" depart="65" departLane="random" departSpeed="10" />
<vehicle id="S_W_65" type="standard_car" route="S_W" depart="65" departLane="random" departSpeed="10" />
<vehicle id="S_N_66" type="standard_car" route="S_N" depart="66" departLane="random" departSpeed="10" />
<vehicle id="W_N_68" type="standard_car" route="W_N" depart="68" departLane="random" departSpeed="10" />
<vehicle id="E_N_76" type="standard_car" route="E_N" depart="76" departLane="random" departSpeed="10" />
<vehicle id="N_W_77" type="standard_car" route="N_W" depart="77" departLane="random" departSpeed="10" />
<vehicle id="E_W_83" type="standard_car" route="E_W" depart="83" departLane="random" departSpeed="10" />
<vehicle id="E_N_84" type="standard_car" route="E_N" depart="84" departLane="random" departSpeed="10" />
<vehicle id="W_E_90" type="standard_car" route="W_E" depart="90" departLane="random" departSpeed="10" />
<vehicle id="W_E_91" type="standard_car" route="W_E" depart="91" departLane="random" departSpeed="10" />
<vehicle id="W_E_95" type="standard_car" route="W_E" depart="95" departLane="random" departSpeed="10" />
<vehicle id="E_W_97" type="standard_car" route="E_W" depart="97" departLane="random" departSpeed="10" />
<vehicle id="E_W_100" type="standard_car" route="E_W" depart="100" departLane="random" departSpeed="10" />
<vehicle id="W_S_102" type="standard_car" route="W_S" depart="102" departLane="random" departSpeed="10" />
<vehicle id="N_E_105" type="standard_car" route="N_E" depart="105" departLane="random" departSpeed="10" />
<vehicle id="W_S_107" type="standard_car" route="W_S" depart="107" departLane="random" departSpeed="10" />
<vehicle id="E_W_110" type="standard_car" route="E_W" depart="110" departLane="random" departSpeed="10" />
<vehicle id="N_E_111" type="standard_car" route="N_E" depart="111" departLane="random" departSpeed="10" />
<vehicle id="W_E_111" type="standard_car" route="W_E" depart="111" departLane="random" departSpeed="10" />
<vehicle id="S_W_120" type="standard_car" route="S_W" depart="120" departLane="random" departSpeed="10" />
<vehicle id="N_S_123" type="standard_car" route="N_S" depart="123" departLane="random" departSpeed="10" />
<vehicle id="S_N_125" type="standard_car" route="S_N" depart="125" departLane="random" departSpeed="10" />
<vehicle id="E_W_134" type="standard_car" route="E_W" depart="134" departLane="random" departSpeed="10" />
<vehicle id="E_N_135" type="standard_car" route="E_N" depart="135" departLane="random" departSpeed="10" />
<vehicle id="S_N_135" type="standard_car" route="S_N" depart="135" departLane="random" departSpeed="10" />
<vehicle id="W_E_140" type="standard_car" route="W_E" depart="140" departLane="random" departSpeed="10" />
<vehicle id="W_E_142" type="standard_car" route="W_E" depart="142" departLane="random" departSpeed="10" />
<vehicle id="W_E_143" type="standard_car" route="W_E" depart="143" departLane="random" departSpeed="10" />
<vehicle id="N_W_147" type="standard_car" route="N_W" depart="147" departLane="random" departSpeed="10" />
<vehicle id="S_N_153" type="standard_car" route="S_N" depart="153" departLane="random" departSpeed="10" />
<vehicle id="S_N_155" type="standard_car" route="S_N" depart="155" departLane="random" departSpeed="10" />
<vehicle id="E_W_156" type="standard_car" route="E_W" depart="156" departLane="random" departSpeed="10" />
<vehicle id="S_W_157" type="standard_car" route="S_W" depart="157" departLane="random" departSpeed="10" />
<vehicle id="E_N_158" type="standard_car" route="E_N" depart="158" departLane="random" departSpeed="10" />
<vehicle id="N_S_162" type="standard_car" route="N_S" depart="162" departLane="random" departSpeed="10" />
<vehicle id="S_E_162" type="standard_car" route="S_E" depart="162" departLane="random" departSpeed="10" />
<vehicle id="S_N_163" type="standard_car" route="S_N" depart="163" departLane="random" departSpeed="10" />
<vehicle id="E_N_166" type="standard_car" route="E_N" depart="166" departLane="random" departSpeed="10" />
<vehicle id="S_E_169" type="standard_car" route="S_E" depart="169" departLane="random" departSpeed="10" />
<vehicle id="E_N_174" type="standard_car" route="E_N" depart="174" departLane="random" departSpeed="10" />
<vehicle id="S_E_176" type="standard_car" route="S_E" depart="176" departLane="random" departSpeed="10" />
<vehicle id="N_W_177" type="standard_car" route="N_W" depart="177" departLane="random" departSpeed="10" />
<vehicle id="N_S_180" type="standard_car" route="N_S" depart="180" departLane="random" departSpeed="10" />
<vehicle id="S_N_181" type="standard_car" route="S_N" depart="181" departLane="random" departSpeed="10" />
<vehicle id="S_W_182" type="standard_car" route="S_W" depart="182" departLane="random" departSpeed="10" />
<vehicle id="E_W_184" type="standard_car" route="E_W" depart="184" departLane="random" departSpeed="10" />
<vehicle id="S_N_185" type="standard_car" route="S_N" depart="185" departLane="random" departSpeed="10" />
<vehicle id="S_N_194" type="standard_car" route="S_N" depart="194" departLane="random" departSpeed="10" />
<vehicle id="N_S_195" type="standard_car" route="N_S" depart="195" departLane="random" departSpeed="10" />
<vehicle id="N_S_196" type="standard_car" route="N_S" depart="196" departLane="random" departSpeed="10" />
<vehicle id="E_W_201" type="standard_car" route="E_W" depart="201" departLane="random" departSpeed="10" />
<vehicle id="W_E_202" type="standard_car" route="W_E" depart="202" departLane="random" departSpeed="10" />
<vehicle id="E_N_204" type="standard_car" route="E_N" depart="204" departLane="random" departSpeed="10" />
<vehicle id="E_W_205" type="standard_car" route="E_W" depart="205" departLane="random" departSpeed="10" />
<vehicle id="N_W_205" type="standard_car" route="N_W" depart="205" departLane="random" departSpeed="10" />
<vehicle id="N_S_208" type="standard_car" route="N_S" depart="208" departLane="random" departSpeed="10" />
<vehicle id="N_S_210" type="standard_car" route="N_S" depart="210" departLane="random" departSpeed="10" />
<vehicle id="W_E_215" type="standard_car" route="W_E" depart="215" departLane="random" departSpeed="10" />
<vehicle id="E_W_230" type="standard_car" route="E_W" depart="230" departLane="random" departSpeed="10" />
<vehicle id="S_N_231" type="standard_car" route="S_N" depart="231" departLane="random" departSpeed="10" />
<vehicle id="N_S_233" type="standard_car" route="N_S" depart="233" departLane="random" departSpeed="10" />
<vehicle id="N_S_234" type="standard_car" route="N_S" depart="234" departLane="random" departSpeed="10" />
<vehicle id="S_W_235" type="standard_car" route="S_W" depart="235" departLane="random" departSpeed="10" />
<vehicle id="N_S_236" type="standard_car" route="N_S" depart="236" departLane="random" departSpeed="10" />
<vehicle id="N_S_239" type="standard_car" route="N_S" depart="239" departLane="random" departSpeed="10" />
<vehicle id="N_W_249" type="standard_car" route="N_W" depart="249" departLane="random" departSpeed="10" />
<vehicle id="E_N_250" type="standard_car" route="E_N" depart="250" departLane="random" departSpeed="10" />
<vehicle id="E_W_258" type="standard_car" route="E_W" depart="258" departLane="random" departSpeed="10" />
<vehicle id="S_E_260" type="standard_car" route="S_E" depart="260" departLane="random" departSpeed="10" />
<vehicle id="E_W_262" type="standard_car" route="E_W" depart="262" departLane="random" departSpeed="10" />
<vehicle id="N_S_263" type="standard_car" route="N_S" depart="263" departLane="random" departSpeed="10" />
<vehicle id="W_S_263" type="standard_car" route="W_S" depart="263" departLane="random" departSpeed="10" />
<vehicle id="W_S_265" type="standard_car" route="W_S" depart="265" departLane="random" departSpeed="10" />
<vehicle id="E_W_267" type="standard_car" route="E_W" depart="267" departLane="random" departSpeed="10" />
<vehicle id="S_N_269" type="standard_car" route="S_N" depart="269" departLane="random" departSpeed="10" />
<vehicle id="S_N_281" type="standard_car" route="S_N" depart="281" departLane="random" departSpeed="10" />
<vehicle id="S_N_282" type="standard_car" route="S_N" depart="282" departLane="random" departSpeed="10" />
<vehicle id="N_S_288" type="standard_car" route="N_S" depart="288" departLane="random" departSpeed="10" />
<vehicle id="N_S_290" type="standard_car" route="N_S" depart="290" departLane="random" departSpeed="10" />
<vehicle id="W_S_290" type="standard_car" route="W_S" depart="290" departLane="random" departSpeed="10" />
<vehicle id="S_E_293" type="standard_car" route="S_E" depart="293" departLane="random" departSpeed="10" />
<vehicle id="N_S_295" type="standard_car" route="N_S" depart="295" departLane="random" departSpeed="10" />
<vehicle id="S_N_297" type="standard_car" route="S_N" depart="297" departLane="random" departSpeed="10" />
<vehicle id="S_E_306" type="standard_car" route="S_E" depart="306" departLane="random" departSpeed="10" />
<vehicle id="E_W_307" type="standard_car" route="E_W" depart="307" departLane="random" departSpeed="10" />
<vehicle id="E_W_314" type="standard_car" route="E_W" depart="314" departLane="random" departSpeed="10" />
<vehicle id="S_E_315" type="standard_car" route="S_E" depart="315" departLane="random" departSpeed="10" />
<vehicle id="S_N_320" type="standard_car" route="S_N" depart="320" departLane="random" departSpeed="10" />
<vehicle id="N_W_331" type="standard_car" route="N_W" depart="331" departLane="random" departSpeed="10" />
<vehicle id="E_S_336" type="standard_car" route="E_S" depart="336" departLane="random" departSpeed="10" />
<vehicle id="E_S_340" type="standard_car" route="E_S" depart="340" departLane="random" departSpeed="10" />
<vehicle id="S_N_340" type="standard_car" route="S_N" depart="340" departLane="random" departSpeed="10" />
<vehicle id="N_W_347" type="standard_car" route="N_W" depart="347" departLane="random" departSpeed="10" />
<vehicle id="W_E_349" type="standard_car" route="W_E" depart="349" departLane="random" departSpeed="10" />
<vehicle id="S_N_351" type="standard_car" route="S_N" depart="351" departLane="random" departSpeed="10" />
<vehicle id="S_N_352" type="standard_car" route="S_N" depart="352" departLane="random" departSpeed="10" />
<vehicle id="N_S_353" type="standard_car" route="N_S" depart="353" departLane="random" departSpeed="10" />
<vehicle id="S_E_355" type="standard_car" route="S_E" depart="355" departLane="random" departSpeed="10" />
<vehicle id="S_N_360" type="standard_car" route="S_N" depart="360" departLane="random" departSpeed="10" />
<vehicle id="S_N_362" type="standard_car" route="S_N" depart="362" departLane="random" departSpeed="10" />
<vehicle id="S_N_365" type="standard_car" route="S_N" depart="365" departLane="random" departSpeed="10" />
<vehicle id="E_N_367" type="standard_car" route="E_N" depart="367" departLane="random" departSpeed="10" />
<vehicle id="W_E_370" type="standard_car" route="W_E" depart="370" departLane="random" departSpeed="10" />
<vehicle id="N_W_377" type="standard_car" route="N_W" depart="377" departLane="random" departSpeed="10" />
<vehicle id="S_N_379" type="standard_car" route="S_N" depart="379" departLane="random" departSpeed="10" />
<vehicle id="W_E_382" type="standard_car" route="W_E" depart="382" departLane="random" departSpeed="10" />
<vehicle id="S_N_386" type="standard_car" route="S_N" depart="386" departLane="random" departSpeed="10" />
<vehicle id="W_S_391" type="standard_car" route="W_S" depart="391" departLane="random" departSpeed="10" />
<vehicle id="W_E_391" type="standard_car" route="W_E" depart="391" departLane="random" departSpeed="10" />
<vehicle id="W_E_393" type="standard_car" route="W_E" depart="393" departLane="random" departSpeed="10" />
<vehicle id="S_N_395" type="standard_car" route="S_N" depart="395" departLane="random" departSpeed="10" />
<vehicle id="W_E_398" type="standard_car" route="W_E" depart="398" departLane="random" departSpeed="10" />
<vehicle id="S_N_401" type="standard_car" route="S_N" depart="401" departLane="random" departSpeed="10" />
<vehicle id="N_W_404" type="standard_car" route="N_W" depart="404" departLane="random" departSpeed="10" />
<vehicle id="E_W_407" type="standard_car" route="E_W" depart="407" departLane="random" departSpeed="10" />
<vehicle id="W_N_407" type="standard_car" route="W_N" depart="407" departLane="random" departSpeed="10" />
<vehicle id="N_S_421" type="standard_car" route="N_S" depart="421" departLane="random" departSpeed="10" />
<vehicle id="W_E_421" type="standard_car" route="W_E" depart="421" departLane="random" departSpeed="10" />
<vehicle id="W_E_422" type="standard_car" route="W_E" depart="422" departLane="random" departSpeed="10" />
<vehicle id="S_N_426" type="standard_car" route="S_N" depart="426" departLane="random" departSpeed="10" />
<vehicle id="S_E_440" type="standard_car" route="S_E" depart="440" departLane="random" departSpeed="10" />
<vehicle id="W_S_442" type="standard_car" route="W_S" depart="442" departLane="random" departSpeed="10" />
<vehicle id="W_S_447" type="standard_car" route="W_S" depart="447" departLane="random" departSpeed="10" />
<vehicle id="E_N_451" type="standard_car" route="E_N" depart="451" departLane="random" departSpeed="10" />
<vehicle id="N_E_452" type="standard_car" route="N_E" depart="452" departLane="random" departSpeed="10" />
<vehicle id="N_E_458" type="standard_car" route="N_E" depart="458" departLane="random" departSpeed="10" />
<vehicle id="N_S_462" type="standard_car" route="N_S" depart="462" departLane="random" departSpeed="10" />
<vehicle id="W_E_464" type="standard_car" route="W_E" depart="464" departLane="random" departSpeed="10" />
<vehicle id="S_N_464" type="standard_car" route="S_N" depart="464" departLane="random" departSpeed="10" />
<vehicle id="S_N_465" type="standard_car" route="S_N" depart="465" departLane="random" departSpeed="10" />
<vehicle id="S_N_470" type="standard_car" route="S_N" depart="470" departLane="random" departSpeed="10" />
<vehicle id="E_N_471" type="standard_car" route="E_N" depart="471" departLane="random" departSpeed="10" />
<vehicle id="S_N_481" type="standard_car" route="S_N" depart="481" departLane="random" departSpeed="10" />
<vehicle id="W_E_482" type="standard_car" route="W_E" depart="482" departLane="random" departSpeed="10" />
<vehicle id="W_N_482" type="standard_car" route="W_N" depart="482" departLane="random" departSpeed="10" />
<vehicle id="E_W_484" type="standard_car" route="E_W" depart="484" departLane="random" departSpeed="10" />
<vehicle id="S_W_495" type="standard_car" route="S_W" depart="495" departLane="random" departSpeed="10" />
<vehicle id="W_E_497" type="standard_car" route="W_E" depart="497" departLane="random" departSpeed="10" />
<vehicle id="N_S_507" type="standard_car" route="N_S" depart="507" departLane="random" departSpeed="10" />
<vehicle id="W_E_508" type="standard_car" route="W_E" depart="508" departLane="random" departSpeed="10" />
<vehicle id="S_N_508" type="standard_car" route="S_N" depart="508" departLane="random" departSpeed="10" />
<vehicle id="E_N_509" type="standard_car" route="E_N" depart="509" departLane="random" departSpeed="10" />
<vehicle id="S_N_514" type="standard_car" route="S_N" depart="514" departLane="random" departSpeed="10" />
<vehicle id="N_S_522" type="standard_car" route="N_S" depart="522" departLane="random" departSpeed="10" />
<vehicle id="W_E_527" type="standard_car" route="W_E" depart="527" departLane="random" departSpeed="10" />
<vehicle id="E_W_530" type="standard_car" route="E_W" depart="530" departLane="random" departSpeed="10" />
<vehicle id="S_N_533" type="standard_car" route="S_N" depart="533" departLane="random" departSpeed="10" />
<vehicle id="E_W_534" type="standard_car" route="E_W" depart="534" departLane="random" departSpeed="10" />
<vehicle id="W_E_535" type="standard_car" route="W_E" depart="535" departLane="random" departSpeed="10" />
<vehicle id="N_W_536" type="standard_car" route="N_W" depart="536" departLane="random" departSpeed="10" />
<vehicle id="W_E_541" type="standard_car" route="W_E" depart="541" departLane="random" departSpeed="10" />
<vehicle id="W_E_542" type="standard_car" route="W_E" depart="542" departLane="random" departSpeed="10" />
<vehicle id="E_N_543" type="standard_car" route="E_N" depart="543" departLane="random" departSpeed="10" />
<vehicle id="E_W_544" type="standard_car" route="E_W" depart="544" departLane="random" departSpeed="10" />
<vehicle id="N_S_548" type="standard_car" route="N_S" depart="548" departLane="random" departSpeed="10" />
<vehicle id="N_E_552" type="standard_car" route="N_E" depart="552" departLane="random" departSpeed="10" />
<vehicle id="W_S_555" type="standard_car" route="W_S" depart="555" departLane="random" departSpeed="10" />
<vehicle id="E_N_560" type="standard_car" route="E_N" depart="560" departLane="random" departSpeed="10" />
<vehicle id="N_S_573" type="standard_car" route="N_S" depart="573" departLane="random" departSpeed="10" />
<vehicle id="S_N_579" type="standard_car" route="S_N" depart="579" departLane="random" departSpeed="10" />
<vehicle id="S_N_580" type="standard_car" route="S_N" depart="580" departLane="random" departSpeed="10" />
<vehicle id="N_W_582" type="standard_car" route="N_W" depart="582" departLane="random" departSpeed="10" />
<vehicle id="S_N_589" type="standard_car" route="S_N" depart="589" departLane="random" departSpeed="10" />
<vehicle id="S_N_591" type="standard_car" route="S_N" depart="591" departLane="random" departSpeed="10" />
<vehicle id="S_N_593" type="standard_car" route="S_N" depart="593" departLane="random" departSpeed="10" />
<vehicle id="E_N_594" type="standard_car" route="E_N" depart="594" departLane="random" departSpeed="10" />
<vehicle id="S_N_598" type="standard_car" route="S_N" depart="598" departLane="random" departSpeed="10" />
<vehicle id="W_S_602" type="standard_car" route="W_S" depart="602" departLane="random" departSpeed="10" />
<vehicle id="S_N_605" type="standard_car" route="S_N" depart="605" departLane="random" departSpeed="10" />
<vehicle id="E_N_606" type="standard_car" route="E_N" depart="606" departLane="random" departSpeed="10" />
<vehicle id="W_S_610" type="standard_car" route="W_S" depart="610" departLane="random" departSpeed="10" />
<vehicle id="W_E_611" type="standard_car" route="W_E" depart="611" departLane="random" departSpeed="10" />
<vehicle id="E_S_613" type="standard_car" route="E_S" depart="613" departLane="random" departSpeed="10" />
<vehicle id="S_E_614" type="standard_car" route="S_E" depart="614" departLane="random" departSpeed="10" />
<vehicle id="S_N_616" type="standard_car" route="S_N" depart="616" departLane="random" departSpeed="10" />
<vehicle id="W_E_619" type="standard_car" route="W_E" depart="619" departLane="random" departSpeed="10" />
<vehicle id="E_W_621" type="standard_car" route="E_W" depart="621" departLane="random" departSpeed="10" />
<vehicle id="N_S_621" type="standard_car" route="N_S" depart="621" departLane="random" departSpeed="10" />
<vehicle id="E_W_623" type="standard_car" route="E_W" depart="623" departLane="random" departSpeed="10" />
<vehicle id="N_S_625" type="standard_car" route="N_S" depart="625" departLane="random" departSpeed="10" />
<vehicle id="S_N_627" type="standard_car" route="S_N" depart="627" departLane="random" departSpeed="10" />
<vehicle id="N_W_630" type="standard_car" route="N_W" depart="630" departLane="random" departSpeed="10" />
<vehicle id="E_W_633" type="standard_car" route="E_W" depart="633" departLane="random" departSpeed="10" />
<vehicle id="W_E_637" type="standard_car" route="W_E" depart="637" departLane="random" departSpeed="10" />
<vehicle id="W_N_640" type="standard_car" route="W_N" depart="640" departLane="random" departSpeed="10" />
<vehicle id="N_S_643" type="standard_car" route="N_S" depart="643" departLane="random" departSpeed="10" />
<vehicle id="S_E_643" type="standard_car" route="S_E" depart="643" departLane="random" departSpeed="10" />
<vehicle id="E_N_644" type="standard_car" route="E_N" depart="644" departLane="random" departSpeed="10" />
<vehicle id="N_S_645" type="standard_car" route="N_S" depart="645" departLane="random" departSpeed="10" />
<vehicle id="E_W_647" type="standard_car" route="E_W" depart="647" departLane="random" departSpeed="10" />
<vehicle id="W_N_647" type="standard_car" route="W_N" depart="647" departLane="random" departSpeed="10" />
<vehicle id="N_S_648" type="standard_car" route="N_S" depart="648" departLane="random" departSpeed="10" />
<vehicle id="N_S_650" type="standard_car" route="N_S" depart="650" departLane="random" departSpeed="10" />
<vehicle id="E_W_652" type="standard_car" route="E_W" depart="652" departLane="random" departSpeed="10" />
<vehicle id="S_N_653" type="standard_car" route="S_N" depart="653" departLane="random" departSpeed="10" />
<vehicle id="W_S_657" type="standard_car" route="W_S" depart="657" departLane="random" departSpeed="10" />
<vehicle id="S_E_658" type="standard_car" route="S_E" depart="658" departLane="random" departSpeed="10" />
<vehicle id="S_N_666" type="standard_car" route="S_N" depart="666" departLane="random" departSpeed="10" />
<vehicle id="N_S_667" type="standard_car" route="N_S" depart="667" departLane="random" departSpeed="10" />
<vehicle id="N_S_669" type="standard_car" route="N_S" depart="669" departLane="random" departSpeed="10" />
<vehicle id="N_E_669" type="standard_car" route="N_E" depart="669" departLane="random" departSpeed="10" />
<vehicle id="N_S_672" type="standard_car" route="N_S" depart="672" departLane="random" departSpeed="10" />
<vehicle id="E_W_675" type="standard_car" route="E_W" depart="675" departLane="random" departSpeed="10" />
<vehicle id="W_S_678" type="standard_car" route="W_S" depart="678" departLane="random" departSpeed="10" />
<vehicle id="S_N_678" type="standard_car" route="S_N" depart="678" departLane="random" departSpeed="10" />
<vehicle id="N_W_679" type="standard_car" route="N_W" depart="679" departLane="random" departSpeed="10" />
<vehicle id="N_S_681" type="standard_car" route="N_S" depart="681" departLane="random" departSpeed="10" />
<vehicle id="W_S_682" type="standard_car" route="W_S" depart="682" departLane="random" departSpeed="10" />
<vehicle id="S_N_685" type="standard_car" route="S_N" depart="685" departLane="random" departSpeed="10" />
<vehicle id="N_S_688" type="standard_car" route="N_S" depart="688" departLane="random" departSpeed="10" />
<vehicle id="E_W_689" type="standard_car" route="E_W" depart="689" departLane="random" departSpeed="10" />
<vehicle id="S_W_689" type="standard_car" route="S_W" depart="689" departLane="random" departSpeed="10" />
<vehicle id="N_S_692" type="standard_car" route="N_S" depart="692" departLane="random" departSpeed="10" />
<vehicle id="N_W_696" type="standard_car" route="N_W" depart="696" departLane="random" departSpeed="10" />
<vehicle id="S_N_701" type="standard_car" route="S_N" depart="701" departLane="random" departSpeed="10" />
<vehicle id="W_E_709" type="standard_car" route="W_E" depart="709" departLane="random" departSpeed="10" />
<vehicle id="S_N_709" type="standard_car" route="S_N" depart="709" departLane="random" departSpeed="10" />
<vehicle id="E_W_711" type="standard_car" route="E_W" depart="711" departLane="random" departSpeed="10" />
<vehicle id="N_W_712" type="standard_car" route="N_W" depart="712" departLane="random" departSpeed="10" />
<vehicle id="S_W_712" type="standard_car" route="S_W" depart="712" departLane="random" departSpeed="10" />
<vehicle id="E_W_714" type="standard_car" route="E_W" depart="714" departLane="random" departSpeed="10" />
<vehicle id="S_N_716" type="standard_car" route="S_N" depart="716" departLane="random" departSpeed="10" />
<vehicle id="E_N_719" type="standard_car" route="E_N" depart="719" departLane="random" departSpeed="10" />
<vehicle id="W_E_719" type="standard_car" route="W_E" depart="719" departLane="random" departSpeed="10" />
<vehicle id="W_N_720" type="standard_car" route="W_N" depart="720" departLane="random" departSpeed="10" />
<vehicle id="E_W_723" type="standard_car" route="E_W" depart="723" departLane="random" departSpeed="10" />
<vehicle id="S_N_723" type="standard_car" route="S_N" depart="723" departLane="random" departSpeed="10" />
<vehicle id="E_W_728" type="standard_car" route="E_W" depart="728" departLane="random" departSpeed="10" />
<vehicle id="N_W_729" type="standard_car" route="N_W" depart="729" departLane="random" departSpeed="10" />
<vehicle id="E_W_737" type="standard_car" route="E_W" depart="737" departLane="random" departSpeed="10" />
<vehicle id="S_E_737" type="standard_car" route="S_E" depart="737" departLane="random" departSpeed="10" />
<vehicle id="N_S_740" type="standard_car" route="N_S" depart="740" departLane="random" departSpeed="10" />
<vehicle id="E_W_742" type="standard_car" route="E_W" depart="742" departLane="random" departSpeed="10" />
<vehicle id="N_E_742" type="standard_car" route="N_E" depart="742" departLane="random" departSpeed="10" />
<vehicle id="S_N_743" type="standard_car" route="S_N" depart="743" departLane="random" departSpeed="10" />
<vehicle id="E_W_744" type="standard_car" route="E_W" depart="744" departLane="random" departSpeed="10" />
<vehicle id="S_N_745" type="standard_car" route="S_N" depart="745" departLane="random" departSpeed="10" />
<vehicle id="W_E_749" type="standard_car" route="W_E" depart="749" departLane="random" departSpeed="10" />
<vehicle id="E_N_751" type="standard_car" route="E_N" depart="751" departLane="random" departSpeed="10" />
<vehicle id="E_S_751" type="standard_car" route="E_S" depart="751" departLane="random" departSpeed="10" />
<vehicle id="S_N_755" type="standard_car" route="S_N" depart="755" departLane="random" departSpeed="10" />
<vehicle id="E_W_757" type="standard_car" route="E_W" depart="757" departLane="random" departSpeed="10" />
<vehicle id="W_E_757" type="standard_car" route="W_E" depart="757" departLane="random" departSpeed="10" />
<vehicle id="S_N_758" type="standard_car" route="S_N" depart="758" departLane="random" departSpeed="10" />
<vehicle id="E_N_767" type="standard_car" route="E_N" depart="767" departLane="random" departSpeed="10" />
<vehicle id="S_E_774" type="standard_car" route="S_E" depart="774" departLane="random" departSpeed="10" />
<vehicle id="W_E_776" type="standard_car" route="W_E" depart="776" departLane="random" departSpeed="10" />
<vehicle id="E_N_778" type="standard_car" route="E_N" depart="778" departLane="random" departSpeed="10" />
<vehicle id="W_E_779" type="standard_car" route="W_E" depart="779" departLane="random" departSpeed="10" />
<vehicle id="W_S_785" type="standard_car" route="W_S" depart="785" departLane="random" departSpeed="10" />