<routes> 
<vType accel="1.0" decel="4.5" id="standard_car" length="5.0" minGap="2.5" maxSpeed="25" sigma="0.5" />
<route id="E_N" edges="1i 2o"/>
<route id="E_W" edges="1i 3o"/>
<route id="E_S" edges="1i 4o"/>
<route id="N_W" edges="2i 3o"/>
<route id="N_S" edges="2i 4o"/>
<route id="N_E" edges="2i 1o"/>
<route id="W_S" edges="3i 4o"/>
<route id="W_E" edges="3i 1o"/>
<route id="W_N" edges="3i 2o"/>
<route id="S_E" edges="4i 1o"/>
<route id="S_N" edges="4i 2o"/>
<route id="S_W" edges="4i 3o"/>
<vehicle id="N_S_0" type="standard_car" route="N_S" depart="0" departLane="random" departSpeed="10" />
<vehicle id="S_N_0" type="standard_car" route="S_N" depart="0" departLane="random" departSpeed="10" />
<vehicle id="N_S_1" type="standard_car" route="N_S" depart="1" departLane="random" departSpeed="10" />
<vehicle id="S_N_1" type="standard_car" route="S_N" depart="1" departLane="random" departSpeed="10" />
<vehicle id="N_S_2" type="standard_car" route="N_S" depart="2" departLane="random" departSpeed="10" />
<vehicle id="N_S_3" type="standard_car" route="N_S" depart="3" departLane="random" departSpeed="10" />
<vehicle id="S_N_3" type="standard_car" route="S_N" depart="3" departLane="random" departSpeed="10" />
<vehicle id="S_N_4" type="standard_car" route="S_N" depart="4" departLane="random" departSpeed="10" />
<vehicle id="N_S_5" type="standard_car" route="N_S" depart="5" departLane="random" departSpeed="10" />
<vehicle id="S_N_5" type="standard_car" route="S_N" depart="5" departLane="random" departSpeed="10" />
<vehicle id="S_N_6" type="standard_car" route="S_N" depart="6" departLane="random" departSpeed="10" />
<vehicle id="N_S_7" type="standard_car" route="N_S" depart="7" departLane="random" departSpeed="10" />
<vehicle id="S_N_7" type="standard_car" route="S_N" depart="7" departLane="random" departSpeed="10" />
<vehicle id="N_S_8" type="standard_car" route="N_S" depart="8" departLane="random" departSpeed="10" />
<vehicle id="S_N_8" type="standard_car" route="S_N" depart="8" departLane="random" departSpeed="10" />
<vehicle id="N_S_9" type="standard_car" route="N_S" depart="9" departLane="random" departSpeed="10" />
<vehicle id="N_S_10" type="standard_car" route="N_S" depart="10" departLane="random" departSpeed="10" />
<vehicle id="S_N_10" type="standard_car" route="S_N" depart="10" departLane="random" departSpeed="10" />
<vehicle id="N_S_11" type="standard_car" route="N_S" depart="11" departLane="random" departSpeed="10" />
<vehicle id="S_N_11" type="standard_car" route="S_N" depart="11" departLane="random" departSpeed="10" />
<vehicle id="N_S_12" type="standard_car" route="N_S" depart="12" departLane="random" departSpeed="10" />
<vehicle id="S_N_12" type="standard_car" route="S_N" depart="12" departLane="random" departSpeed="10" />
<vehicle id="S_N_13" type="standard_car" route="S_N" depart="13" departLane="random" departSpeed="10" />
<vehicle id="N_S_14" type="standard_car" route="N_S" depart="14" departLane="random" departSpeed="10" />
<vehicle id="S_N_14" type="standard_car" route="S_N" depart="14" departLane="random" departSpeed="10" />
<vehicle id="N_S_15" type="standard_car" route="N_S" depart="15" departLane="random" departSpeed="10" />
<vehicle id="N_S_16" type="standard_car" route="N_S" depart="16" departLane="random" departSpeed="10" />
<vehicle id="S_N_16" type="standard_car" route="S_N" depart="16" departLane="random" departSpeed="10" />
<vehicle id="N_S_17" type="standard_car" route="N_S" depart="17" departLane="random" departSpeed="10" />
<vehicle id="N_S_18" type="standard_car" route="N_S" depart="18" departLane="random" departSpeed="10" />
<vehicle id="S_N_18" type="standard_car" route="S_N" depart="18" departLane="random" departSpeed="10" />
<vehicle id="N_S_19" type="standard_car" route="N_S" depart="19" departLane="random" departSpeed="10" />
<vehicle id="S_N_19" type="standard_car" route="S_N" depart="19" departLane="random" departSpeed="10" />
<vehicle id="S_N_20" type="standard_car" route="S_N" depart="20" departLane="random" departSpeed="10" />
<vehicle id="N_S_21" type="standard_car" route="N_S" depart="21" departLane="random" departSpeed="10" />
<vehicle id="S_N_21" type="standard_car" route="S_N" depart="21" departLane="random" departSpeed="10" />
<vehicle id="N_S_22" type="standard_car" route="N_S" depart="22" departLane="random" departSpeed="10" />
<vehicle id="S_N_22" type="standard_car" route="S_N" depart="22" departLane="random" departSpeed="10" />
<vehicle id="N_S_23" type="standard_car" route="N_S" depart="23" departLane="random" departSpeed="10" />
<vehicle id="N_S_24" type="standard_car" route="N_S" depart="24" departLane="random" departSpeed="10" />
<vehicle id="S_N_24" type="standard_car" route="S_N" depart="24" departLane="random" departSpeed="10" />
<vehicle id="N_S_25" type="standard_car" route="N_S" depart="25" departLane="random" departSpeed="10" />
<vehicle id="S_N_25" type="standard_car" route="S_N" depart="25" departLane="random" departSpeed="10" />
<vehicle id="S_N_26" type="standard_car" route="S_N" depart="26" departLane="random" departSpeed="10" />
<vehicle id="N_S_27" type="standard_car" route="N_S" depart="27" departLane="random" departSpeed="10" />
<vehicle id="S_N_27" type="standard_car" route="S_N" depart="27" departLane="random" departSpeed="10" />
<vehicle id="S_N_28" type="standard_car" route="S_N" depart="28" departLane="random" departSpeed="10" />
<vehicle id="N_S_29" type="standard_car" route="N_S" depart="29" departLane="random" departSpeed="10" />
<vehicle id="S_N_29" type="standard_car" route="S_N" depart="29" departLane="random" departSpeed="10" />
<vehicle id="N_S_30" type="standard_car" route="N_S" depart="30" departLane="random" departSpeed="10" />
<vehicle id="N_S_31" type="standard_car" route="N_S" depart="31" departLane="random" departSpeed="10" />
<vehicle id="N_S_32" type="standard_car" route="N_S" depart="32" departLane="random" departSpeed="10" />
<vehicle id="S_N_32" type="standard_car" route="S_N" depart="32" departLane="random" departSpeed="10" />
<vehicle id="S_N_33" type="standard_car" route="S_N" depart="33" departLane="random" departSpeed="10" />
<vehicle id="S_N_34" type="standard_car" route="S_N" depart="34" departLane="random" departSpeed="10" />
<vehicle id="N_S_35" type="standard_car" route="N_S" depart="35" departLane="random" departSpeed="10" />
<vehicle id="S_N_35" type="standard_car" route="S_N" depart="35" departLane="random" departSpeed="10" />
<vehicle id="N_S_36" type="standard_car" route="N_S" depart="36" departLane="random" departSpeed="10" />
<vehicle id="N_S_37" type="standard_car" route="N_S" depart="37" departLane="random" departSpeed="10" />
<vehicle id="S_N_37" type="standard_car" route="S_N" depart="37" departLane="random" departSpeed="10" />
<vehicle id="N_S_38" type="standard_car" route="N_S" depart="38" departLane="random" departSpeed="10" />
<vehicle id="S_N_38" type="standard_car" route="S_N" depart="38" departLane="random" departSpeed="10" />
<vehicle id="N_S_39" type="standard_car" route="N_S" depart="39" departLane="random" departSpeed="10" />
<vehicle id="S_N_39" type="standard_car" route="S_N" depart="39" departLane="random" departSpeed="10" />
<vehicle id="N_S_40" type="standard_car" route="N_S" depart="40" departLane="random" departSpeed="10" />
<vehicle id="S_N_40" type="standard_car" route="S_N" depart="40" departLane="random" departSpeed="10" />
<vehicle id="N_S_41" type="standard_car" route="N_S" depart="41" departLane="random" departSpeed="10" />
<vehicle id="S_N_41" type="standard_car" route="S_N" depart="41" departLane="random" departSpeed="10" />
<vehicle id="N_S_42" type="standard_car" route="N_S" depart="42" departLane="random" departSpeed="10" />
<vehicle id="N_S_43" type="standard_car" route="N_S" depart="43" departLane="random" departSpeed="10" />
<vehicle id="S_N_43" type="standard_car" route="S_N" depart="43" departLane="random" departSpeed="10" />
<vehicle id="N_S_44" type="standard_car" route="N_S" depart="44" departLane="random" departSpeed="10" />
<vehicle id="S_N_44" type="standard_car" route="S_N" depart="44" departLane="random" departSpeed="10" />
<vehicle id="N_S_45" type="standard_car" route="N_S" depart="45" departLane="random" departSpeed="10" />
<vehicle id="S_N_45" type="standard_car" route="S_N" depart="45" departLane="random" departSpeed="10" />
<vehicle id="N_S_46" type="standard_car" route="N_S" depart="46" departLane="random" departSpeed="10" />
<vehicle id="S_N_46" type="standard_car" route="S_N" depart="46" departLane="random" departSpeed="10" />
<vehicle id="N_S_47" type="standard_car" route="N_S" depart="47" departLane="random" departSpeed="10" />
<vehicle id="N_S_48" type="standard_car" route="N_S" depart="48" departLane="random" departSpeed="10" />
<vehicle id="S_N_48" type="standard_car" route="S_N" depart="48" departLane="random" departSpeed="10" />
<vehicle id="N_S_49" type="standard_car" route="N_S" depart="49" departLane="random" departSpeed="10" />
<vehicle id="S_N_49" type="standard_car" route="S_N" depart="49" departLane="random" departSpeed="10" />
<vehicle id="N_S_50" type="standard_car" route="N_S" depart="50" departLane="random" departSpeed="10" />
<vehicle id="S_N_50" type="standard_car" route="S_N" depart="50" departLane="random" departSpeed="10" />
<vehicle id="N_S_51" type="standard_car" route="N_S" depart="51" departLane="random" departSpeed="10" />
<vehicle id="S_N_52" type="standard_car" route="S_N" depart="52" departLane="random" departSpeed="10" />
<vehicle id="N_S_53" type="standard_car" route="N_S" depart="53" departLane="random" departSpeed="10" />
<vehicle id="S_N_53" type="standard_car" route="S_N" depart="53" departLane="random" departSpeed="10" />
<vehicle id="N_S_54" type="standard_car" route="N_S" depart="54" departLane="random" departSpeed="10" />
<vehicle id="S_N_54" type="standard_car" route="S_N" depart="54" departLane="random" departSpeed="10" />
<vehicle id="N_S_55" type="standard_car" route="N_S" depart="55" departLane="random" departSpeed="10" />
<vehicle id="S_N_55" type="standard_car" route="S_N" depart="55" departLane="random" departSpeed="10" />
<vehicle id="N_S_56" type="standard_car" route="N_S" depart="56" departLane="random" departSpeed="10" />
<vehicle id="N_S_57" type="standard_car" route="N_S" depart="57" departLane="random" departSpeed="10" />
<vehicle id="N_S_58" type="standard_car" route="N_S" depart="58" departLane="random" departSpeed="10" />
<vehicle id="S_N_58" type="standard_car" route="S_N" depart="58" departLane="random" departSpeed="10" />
<vehicle id="S_N_59" type="standard_car" route="S_N" depart="59" departLane="random" departSpeed="10" />
<vehicle id="N_S_60" type="standard_car" route="N_S" depart="60" departLane="random" departSpeed="10" />
<vehicle id="S_N_60" type="standard_car" route="S_N" depart="60" departLane="random" departSpeed="10" />
<vehicle id="N_S_61" type="standard_car" route="N_S" depart="61" departLane="random" departSpeed="10" />
<vehicle id="S_N_61" type="standard_car" route="S_N" depart="61" departLane="random" departSpeed="10" />
<vehicle id="N_S_62" type="standard_car" route="N_S" depart="62" departLane="random" departSpeed="10" />
<vehicle id="S_N_62" type="standard_car" route="S_N" depart="62" departLane="random" departSpeed="10" />
<vehicle id="N_S_63" type="standard_car" route="N_S" depart="63" departLane="random" departSpeed="10" />
<vehicle id="S_N_63" type="standard_car" route="S_N" depart="63" departLane="random" departSpeed="10" />
<vehicle id="N_S_64" type="standard_car" route="N_S" depart="64" departLane="random" departSpeed="10" />
<vehicle id="S_N_64" type="standard_car" route="S_N" depart="64" departLane="random" departSpeed="10" />
<vehicle id="S_N_65" type="standard_car" route="S_N" depart="65" departLane="random" departSpeed="10" />
<vehicle id="N_S_66" type="standard_car" route="N_S" depart="66" departLane="random" departSpeed="10" />
<vehicle id="S_N_66" type="standard_car" route="S_N" depart="66" departLane="random" departSpeed="10" />
<vehicle id="N_S_67" type="standard_car" route="N_S" depart="67" departLane="random" departSpeed="10" />
<vehicle id="S_N_67" type="standard_car" route="S_N" depart="67" departLane="random" departSpeed="10" />
<vehicle id="S_N_68" type="standard_car" route="S_N" depart="68" departLane="random" departSpeed="10" />
<vehicle id="N_S_69" type="standard_car" route="N_S" depart="69" departLane="random" departSpeed="10" />
<vehicle id="N_S_70" type="standard_car" route="N_S" depart="70" departLane="random" departSpeed="10" />
<vehicle id="S_N_70" type="standard_car" route="S_N" depart="70" departLane="random" departSpeed="10" />
<vehicle id="S_N_71" type="standard_car" route="S_N" depart="71" departLane="random" departSpeed="10" />
<vehicle id="N_S_72" type="standard_car" route="N_S" depart="72" departLane="random" departSpeed="10" />
<vehicle id="S_N_72" type="standard_car" route="S_N" depart="72" departLane="random" departSpeed="10" />
<vehicle id="N_S_73" type="standard_car" route="N_S" depart="73" departLane="random" departSpeed="10" />
<vehicle id="S_N_73" type="standard_car" route="S_N" depart="73" departLane="random" departSpeed="10" />
<vehicle id="N_S_74" type="standard_car" route="N_S" depart="74" departLane="random" departSpeed="10" />
<vehicle id="N_S_75" type="standard_car" route="N_S" depart="75" departLane="random" departSpeed="10" />
<vehicle id="S_N_75" type="standard_car" route="S_N" depart="75" departLane="random" departSpeed="10" />
<vehicle id="N_S_76" type="standard_car" route="N_S" depart="76" departLane="random" departSpeed="10" />
<vehicle id="S_N_76" type="standard_car" route="S_N" depart="76" departLane="random" departSpeed="10" />
<vehicle id="N_S_77" type="standard_car" route="N_S" depart="77" departLane="random" departSpeed="10" />
<vehicle id="S_N_77" type="standard_car" route="S_N" depart="77" departLane="random" departSpeed="10" />
<vehicle id="N_S_78" type="standard_car" route="N_S" depart="78" departLane="random" departSpeed="10" />
<vehicle id="S_N_79" type="standard_car" route="S_N" depart="79" departLane="random" departSpeed="10" />
<vehicle id="N_S_80" type="standard_car" route="N_S" depart="80" departLane="random" departSpeed="10" />
<vehicle id="S_N_80" type="standard_car" route="S_N" depart="80" departLane="random" departSpeed="10" />
<vehicle id="S_N_81" type="standard_car" route="S_N" depart="81" departLane="random" departSpeed="10" />
<vehicle id="N_S_82" type="standard_car" route="N_S" depart="82" departLane="random" departSpeed="10" />
<vehicle id="S_N_82" type="standard_car" route="S_N" depart="82" departLane="random" departSpeed="10" />
<vehicle id="N_S_83" type="standard_car" route="N_S" depart="83" departLane="random" departSpeed="10" />
<vehicle id="S_N_83" type="standard_car" route="S_N" depart="83" departLane="random" departSpeed="10" />
<vehicle id="N_S_84" type="standard_car" route="N_S" depart="84" departLane="random" departSpeed="10" />
<vehicle id="S_N_84" type="standard_car" route="S_N" depart="84" departLane="random" departSpeed="10" />
<vehicle id="N_S_85" type="standard_car" route="N_S" depart="85" departLane="random" departSpeed="10" />
<vehicle id="S_N_85" type="standard_car" route="S_N" depart="85" departLane="random" departSpeed="10" />
<vehicle id="N_S_86" type="standard_car" route="N_S" depart="86" departLane="random" departSpeed="10" />
<vehicle id="S_N_86" type="standard_car" route="S_N" depart="86" departLane="random" departSpeed="10" />
<vehicle id="S_N_87" type="standard_car" route="S_N" depart="87" departLane="random" departSpeed="10" />
<vehicle id="N_S_88" type="standard_car" route="N_S" depart="88" departLane="random" departSpeed="10" />
<vehicle id="S_N_88" type="standard_car" route="S_N" depart="88" departLane="random" departSpeed="10" />
<vehicle id="N_S_89" type="standard_car" route="N_S" depart="89" departLane="random" departSpeed="10" />
<vehicle id="S_N_89" type="standard_car" route="S_N" depart="89" departLane="random" departSpeed="10" />
<vehicle id="N_S_90" type="standard_car" route="N_S" depart="90" departLane="random" departSpeed="10" />
<vehicle id="S_N_90" type="standard_car" route="S_N" depart="90" departLane="random" departSpeed="10" />
<vehicle id="N_S_91" type="standard_car" route="N_S" depart="91" departLane="random" departSpeed="10" />
<vehicle id="S_N_91" type="standard_car" route="S_N" depart="91" departLane="random" departSpeed="10" />
<vehicle id="N_S_92" type="standard_car" route="N_S" depart="92" departLane="random" departSpeed="10" />
<vehicle id="S_N_92" type="standard_car" route="S_N" depart="92" departLane="random" departSpeed="10" />
<vehicle id="N_S_93" type="standard_car" route="N_S" depart="93" departLane="random" departSpeed="10" />
<vehicle id="S_N_93" type="standard_car" route="S_N" depart="93" departLane="random" departSpeed="10" />
<vehicle id="N_S_94" type="standard_car" route="N_S" depart="94" departLane="random" departSpeed="10" />
<vehicle id="S_N_94" type="standard_car" route="S_N" depart="94" departLane="random" departSpeed="10" />
<vehicle id="N_S_95" type="standard_car" route="N_S" depart="95" departLane="random" departSpeed="10" />
<vehicle id="S_N_95" type="standard_car" route="S_N" depart="95" departLane="random" departSpeed="10" />
<vehicle id="N_S_96" type="standard_car" route="N_S" depart="96" departLane="random" departSpeed="10" />
<vehicle id="S_N_96" type="standard_car" route="S_N" depart="96" departLane="random" departSpeed="10" />
<vehicle id="N_S_97" type="standard_car" route="N_S" depart="97" departLane="random" departSpeed="10" />
<vehicle id="S_N_98" type="standard_car" route="S_N" depart="98" departLane="random" departSpeed="10" />
<vehicle id="N_S_99" type="standard_car" route="N_S" depart="99" departLane="random" departSpeed="10" />
<vehicle id="S_N_99" type="standard_car" route="S_N" depart="99" departLane="random" departSpeed="10" />
<vehicle id="N_S_100" type="standard_car" route="N_S" depart="100" departLane="random" departSpeed="10" />
<vehicle id="S_N_100" type="standard_car" route="S_N" depart="100" departLane="random" departSpeed="10" />
<vehicle id="N_S_101" type="standard_car" route="N_S" depart="101" departLane="random" departSpeed="10" />
<vehicle id="S_N_101" type="standard_car" route="S_N" depart="101" departLane="random" departSpeed="10" />
<vehicle id="N_S_102" type="standard_car" route="N_S" depart="102" departLane="random" departSpeed="10" />
<vehicle id="N_S_103" type="standard_car" route="N_S" depart="103" departLane="random" departSpeed="10" />
<vehicle id="N_S_104" type="standard_car" route="N_S" depart="104" departLane="random" departSpeed="10" />
<vehicle id="S_N_104" type="standard_car" route="S_N" depart="104" departLane="random" departSpeed="10" />
<vehicle id="N_S_105" type="standard_car" route="N_S" depart="105" departLane="random" departSpeed="10" />
<vehicle id="S_N_105" type="standard_car" route="S_N" depart="105" departLane="random" departSpeed="10" />
<vehicle id="N_S_106" type="standard_car" route="N_S" depart="106" departLane="random" departSpeed="10" />
<vehicle id="N_S_107" type="standard_car" route="N_S" depart="107" departLane="random" departSpeed="10" />
<vehicle id="S_N_107" type="standard_car" route="S_N" depart="107" departLane="random" departSpeed="10" />
<vehicle id="S_N_108" type="standard_car" route="S_N" depart="108" departLane="random" departSpeed="10" />
<vehicle id="N_S_109" type="standard_car" route="N_S" depart="109" departLane="random" departSpeed="10" />
<vehicle id="S_N_109" type="standard_car" route="S_N" depart="109" departLane="random" departSpeed="10" />
<vehicle id="S_N_110" type="standard_car" route="S_N" depart="110" departLane="random" departSpeed="10" />
<vehicle id="N_S_111" type="standard_car" route="N_S" depart="111" departLane="random" departSpeed="10" />
<vehicle id="S_N_112" type="standard_car" route="S_N" depart="112" departLane="random" departSpeed="10" />
<vehicle id="S_N_113" type="standard_car" route="S_N" depart="113" departLane="random" departSpeed="10" />
<vehicle id="N_S_114" type="standard_car" route="N_S" depart="114" departLane="random" departSpeed="10" />
<vehicle id="S_N_114" type="standard_car" route="S_N" depart="114" departLane="random" departSpeed="10" />
<vehicle id="N_S_115" type="standard_car" route="N_S" depart="115" departLane="random" departSpeed="10" />
<vehicle id="S_N_115" type="standard_car" route="S_N" depart="115" departLane="random" departSpeed="10" />
<vehicle id="N_S_116" type="standard_car" route="N_S" depart="116" departLane="random" departSpeed="10" />
<vehicle id="S_N_116" type="standard_car" route="S_N" depart="116" departLane="random" departSpeed="10" />
<vehicle id="N_S_117" type="standard_car" route="N_S" depart="117" departLane="random" departSpeed="10" />
<vehicle id="S_N_117" type="standard_car" route="S_N" depart="117" departLane="random" departSpeed="10" />
<vehicle id="N_S_118" type="standard_car" route="N_S" depart="118" departLane="random" departSpeed="10" />
<vehicle id="S_N_118" type="standard_car" route="S_N" depart="118" departLane="random" departSpeed="10" />
<vehicle id="N_S_119" type="standard_car" route="N_S" depart="119" departLane="random" departSpeed="10" />
<vehicle id="S_N_120" type="standard_car" route="S_N" depart="120" departLane="random" departSpeed="10" />
<vehicle id="S_N_122" type="standard_car" route="S_N" depart="122" departLane="random" departSpeed="10" />
<vehicle id="N_S_123" type="standard_car" route="N_S" depart="123" departLane="random" departSpeed="10" />
<vehicle id="N_S_124" type="standard_car" route="N_S" depart="124" departLane="random" departSpeed="10" />
<vehicle id="N_S_125" type="standard_car" route="N_S" depart="125" departLane="random" departSpeed="10" />
<vehicle id="S_N_125" type="standard_car" route="S_N" depart="125" departLane="random" departSpeed="10" />
<vehicle id="N_S_126" type="standard_car" route="N_S" depart="126" departLane="random" departSpeed="10" />
<vehicle id="S_N_126" type="standard_car" route="S_N" depart="126" departLane="random" departSpeed="10" />
<vehicle id="N_S_127" type="standard_car" route="N_S" depart="127" departLane="random" departSpeed="10" />
<vehicle id="S_N_127" type="standard_car" route="S_N" depart="127" departLane="random" departSpeed="10" />
<vehicle id="N_S_128" type="standard_car" route="N_S" depart="128" departLane="random" departSpeed="10" />
<vehicle id="S_N_128" type="standard_car" route="S_N" depart="128" departLane="random" departSpeed="10" />
<vehicle id="N_S_129" type="standard_car" route="N_S" depart="129" departLane="random" departSpeed="10" />
<vehicle id="S_N_130" type="standard_car" route="S_N" depart="130" departLane="random" departSpeed="10" />
<vehicle id="N_S_131" type="standard_car" route="N_S" depart="131" departLane="random" departSpeed="10" />
<vehicle id="S_N_131" type="standard_car" route="S_N" depart="131" departLane="random" departSpeed="10" />
<vehicle id="N_S_132" type="standard_car" route="N_S" depart="132" departLane="random" departSpeed="10" />
<vehicle id="S_N_132" type="standard_car" route="S_N" depart="132" departLane="random" departSpeed="10" />
<vehicle id="N_S_133" type="standard_car" route="N_S" depart="133" departLane="random" departSpeed="10" />
<vehicle id="S_N_133" type="standard_car" route="S_N" depart="133" departLane="random" departSpeed="10" />
<vehicle id="S_N_134" type="standard_car" route="S_N" depart="134" departLane="random" departSpeed="10" />
<vehicle id="S_N_136" type="standard_car" route="S_N" depart="136" departLane="random" departSpeed="10" />
<vehicle id="N_S_137" type="standard_car" route="N_S" depart="137" departLane="random" departSpeed="10" />
<vehicle id="S_N_137" type="standard_car" route="S_N" depart="137" departLane="random" departSpeed="10" />
<vehicle id="N_S_138" type="standard_car" route="N_S" depart="138" departLane="random" departSpeed="10" />
<vehicle id="S_N_138" type="standard_car" route="S_N" depart="138" departLane="random" departSpeed="10" />
<vehicle id="N_S_139" type="standard_car" route="N_S" depart="139" departLane="random" departSpeed="10" />
<vehicle id="S_N_139" type="standard_car" route="S_N" depart="139" departLane="random" departSpeed="10" />
<vehicle id="N_S_140" type="standard_car" route="N_S" depart="140" departLane="random" departSpeed="10" />
<vehicle id="S_N_140" type="standard_car" route="S_N" depart="140" departLane="random" departSpeed="10" />
<vehicle id="S_N_141" type="standard_car" route="S_N" depart="141" departLane="random" departSpeed="10" />
<vehicle id="N_S_142" type="standard_car" route="N_S" depart="142" departLane="random" departSpeed="10" />
<vehicle id="N_S_143" type="standard_car" route="N_S" depart="143" departLane="random" departSpeed="10" />
<vehicle id="S_N_143" type="standard_car" route="S_N" depart="143" departLane="random" departSpeed="10" />
<vehicle id="S_N_144" type="standard_car" route="S_N" depart="144" departLane="random" departSpeed="10" />
<vehicle id="S_N_145" type="standard_car" route="S_N" depart="145" departLane="random" departSpeed="10" />
<vehicle id="S_N_146" type="standard_car" route="S_N" depart="146" departLane="random" departSpeed="10" />
<vehicle id="N_S_147" type="standard_car" route="N_S" depart="147" departLane="random" departSpeed="10" />
<vehicle id="S_N_147" type="standard_car" route="S_N" depart="147" departLane="random" departSpeed="10" />
<vehicle id="N_S_149" type="standard_car" route="N_S" depart="149" departLane="random" departSpeed="10" />
<vehicle id="S_N_149" type="standard_car" route="S_N" depart="149" departLane="random" departSpeed="10" />
<vehicle id="N_S_150" type="standard_car" route="N_S" depart="150" departLane="random" departSpeed="10" />
<vehicle id="S_N_150" type="standard_car" route="S_N" depart="150" departLane="random" departSpeed="10" />
<vehicle id="N_S_152" type="standard_car" route="N_S" depart="152" departLane="random" departSpeed="10" />
<vehicle id="S_N_152" type="standard_car" route="S_N" depart="152" departLane="random" departSpeed="10" />
<vehicle id="N_S_153" type="standard_car" route="N_S" depart="153" departLane="random" departSpeed="10" />
<vehicle id="S_N_153" type="standard_car" route="S_N" depart="153" departLane="random" departSpeed="10" />
<vehicle id="S_N_154" type="standard_car" route="S_N" depart="154" departLane="random" departSpeed="10" />
<vehicle id="N_S_156" type="standard_car" route="N_S" depart="156" departLane="random" departSpeed="10" />
<vehicle id="S_N_156" type="standard_car" route="S_N" depart="156" departLane="random" departSpeed="10" />
<vehicle id="N_S_157" type="standard_car" route="N_S" depart="157" departLane="random" departSpeed="10" />
<vehicle id="S_N_157" type="standard_car" route="S_N" depart="157" departLane="random" departSpeed="10" />
<vehicle id="S_N_158" type="standard_car" route="S_N" depart="158" departLane="random" departSpeed="10" />
<vehicle id="N_S_159" type="standard_car" route="N_S" depart="159" departLane="random" departSpeed="10" />
<vehicle id="S_N_160" type="standard_car" route="S_N" depart="160" departLane="random" departSpeed="10" />
<vehicle id="N_S_161" type="standard_car" route="N_S" depart="161" departLane="random" departSpeed="10" />
<vehicle id="S_N_161" type="standard_car" route="S_N" depart="161" departLane="random" departSpeed="10" />
<vehicle id="S_N_162" type="standard_car" route="S_N" depart="162" departLane="random" departSpeed="10" />
<vehicle id="N_S_163" type="standard_car" route="N_S" depart="163" departLane="random" departSpeed="10" />
<vehicle id="S_N_164" type="standard_car" route="S_N" depart="164" departLane="random" departSpeed="10" />
<vehicle id="N_S_165" type="standard_car" route="N_S" depart="165" departLane="random" departSpeed="10" />
<vehicle id="S_N_165" type="standard_car" route="S_N" depart="165" departLane="random" departSpeed="10" />
<vehicle id="N_S_166" type="standard_car" route="N_S" depart="166" departLane="random" departSpeed="10" />
<vehicle id="N_S_167" type="standard_car" route="N_S" depart="167" departLane="random" departSpeed="10" />
<vehicle id="S_N_167" type="standard_car" route="S_N" depart="167" departLane="random" departSpeed="10" />
<vehicle id="N_S_168" type="standard_car" route="N_S" depart="168" departLane="random" departSpeed="10" />
<vehicle id="N_S_169" type="standard_car" route="N_S" depart="169" departLane="random" departSpeed="10" />
<vehicle id="S_N_169" type="standard_car" route="S_N" depart="169" departLane="random" departSpeed="10" />
<vehicle id="N_S_170" type="standard_car" route="N_S" depart="170" departLane="random" departSpeed="10" />
<vehicle id="N_S_171" type="standard_car" route="N_S" depart="171" departLane="random" departSpeed="10" />
<vehicle id="N_S_172" type="standard_car" route="N_S" depart="172" departLane="random" departSpeed="10" />
<vehicle id="S_N_172" type="standard_car" route="S_N" depart="172" departLane="random" departSpeed="10" />
<vehicle id="N_S_173" type="standard_car" route="N_S" depart="173" departLane="random" departSpeed="10" />
<vehicle id="N_S_174" type="standard_car" route="N_S" depart="174" departLane="random" departSpeed="10" />
<vehicle id="S_N_175" type="standard_car" route="S_N" depart="175" departLane="random" departSpeed="10" />
<vehicle id="N_S_176" type="standard_car" route="N_S" depart="176" departLane="random" departSpeed="10" />
<vehicle id="S_N_176" type="standard_car" route="S_N" depart="176" departLane="random" departSpeed="10" />
<vehicle id="N_S_178" type="standard_car" route="N_S" depart="178" departLane="random" departSpeed="10" />
<vehicle id="N_S_179" type="standard_car" route="N_S" depart="179" departLane="random" departSpeed="10" />