<routes> 
<vType accel="1.0" decel="4.5" id="standard_car" length="5.0" minGap="2.5" maxSpeed="25" sigma="0.5" />
<route id="E_N" edges="1i 2o"/>
<route id="E_W" edges="1i 3o"/>
<route id="E_S" edges="1i 4o"/>
<route id="N_W" edges="2i 3o"/>
<route id="N_S" edges="2i 4o"/>
<route id="N_E" edges="2i 1o"/>
<route id="W_S" edges="3i 4o"/>
<route id="W_E" edges="3i 1o"/>
<route id="W_N" edges="3i 2o"/>
<route id="S_E" edges="4i 1o"/>
<route id="S_N" edges="4i 2o"/>
<route id="S_W" edges="4i 3o"/>
<vehicle id="N_S_1" type="standard_car" route="N_S" depart="1" departLane="random" departSpeed="10" />
<vehicle id="E_W_2" type="standard_car" route="E_W" depart="2" departLane="random" departSpeed="10" />
<vehicle id="W_N_7" type="standard_car" route="W_N" depart="7" departLane="random" departSpeed="10" />
<vehicle id="W_E_16" type="standard_car" route="W_E" depart="16" departLane="random" departSpeed="10" />
<vehicle id="W_E_22" type="standard_car" route="W_E" depart="22" departLane="random" departSpeed="10" />
<vehicle id="W_E_38" type="standard_car" route="W_E" depart="38" departLane="random" departSpeed="10" />
<vehicle id="N_S_41" type="standard_car" route="N_S" depart="41" departLane="random" departSpeed="10" />
<vehicle id="W_E_41" type="standard_car" route="W_E" depart="41" departLane="random" departSpeed="10" />
<vehicle id="W_E_43" type="standard_car" route="W_E" depart="43" departLane="random" departSpeed="10" />
<vehicle id="N_S_49" type="standard_car" route="N_S" depart="49" departLane="random" departSpeed="10" />
<vehicle id="N_E_58" type="standard_car" route="N_E" depart="58" departLane="random" departSpeed="10" />
<vehicle id="E_W_61" type="standard_car" route="E_W" depart="61" departLane="random" departSpeed="10" />
<vehicle id="E_W_64" type="standard_car" route="E_W" depart="64" departLane="random" departSpeed="10" />
<vehicle id="S_N_66" type="standard_car" route="S_N" depart="66" departLane="random" departSpeed="10" />
<vehicle id="S_N_73" type="standard_car" route="S_N" depart="73" departLane="random" departSpeed="10" />
<vehicle id="W_E_75" type="standard_car" route="W_E" depart="75" departLane="random" departSpeed="10" />
<vehicle id="N_S_81" type="standard_car" route="N_S" depart="81" departLane="random" departSpeed="10" />
<vehicle id="W_E_81" type="standard_car" route="W_E" depart="81" departLane="random" departSpeed="10" />
<vehicle id="N_S_86" type="standard_car" route="N_S" depart="86" departLane="random" departSpeed="10" />
<vehicle id="N_S_92" type="standard_car" route="N_S" depart="92" departLane="random" departSpeed="10" />
<vehicle id="W_E_96" type="standard_car" route="W_E" depart="96" departLane="random" departSpeed="10" />
<vehicle id="N_W_98" type="standard_car" route="N_W" depart="98" departLane="random" departSpeed="10" />
<vehicle id="S_N_100" type="standard_car" route="S_N" depart="100" departLane="random" departSpeed="10" />
<vehicle id="W_N_108" type="standard_car" route="W_N" depart="108" departLane="random" departSpeed="10" />
<vehicle id="E_W_116" type="standard_car" route="E_W" depart="116" departLane="random" departSpeed="10" />
<vehicle id="W_S_116" type="standard_car" route="W_S" depart="116" departLane="random" departSpeed="10" />
<vehicle id="W_E_124" type="standard_car" route="W_E" depart="124" departLane="random" departSpeed="10" />
<vehicle id="E_S_126" type="standard_car" route="E_S" depart="126" departLane="random" departSpeed="10" />
<vehicle id="W_E_127" type="standard_car" route="W_E" depart="127" departLane="random" departSpeed="10" />
<vehicle id="S_W_131" type="standard_car" route="S_W" depart="131" departLane="random" departSpeed="10" />
<vehicle id="E_S_132" type="standard_car" route="E_S" depart="132" departLane="random" departSpeed="10" />
<vehicle id="W_S_134" type="standard_car" route="W_S" depart="134" departLane="random" departSpeed="10" />
<vehicle id="W_S_138" type="standard_car" route="W_S" depart="138" departLane="random" departSpeed="10" />
<vehicle id="S_E_138" type="standard_car" route="S_E" depart="138" departLane="random" departSpeed="10" />
<vehicle id="E_W_139" type="standard_car" route="E_W" depart="139" departLane="random" departSpeed="10" />
<vehicle id="N_W_141" type="standard_car" route="N_W" depart="141" departLane="random" departSpeed="10" />
<vehicle id="N_E_149" type="standard_car" route="N_E" depart="149" departLane="random" departSpeed="10" />
<vehicle id="S_N_149" type="standard_car" route="S_N" depart="149" departLane="random" departSpeed="10" />
<vehicle id="W_S_150" type="standard_car" route="W_S" depart="150" departLane="random" departSpeed="10" />
<vehicle id="N_W_152" type="standard_car" route="N_W" depart="152" departLane="random" departSpeed="10" />
<vehicle id="N_S_152" type="standard_car" route="N_S" depart="152" departLane="random" departSpeed="10" />
<vehicle id="E_W_154" type="standard_car" route="E_W" depart="154" departLane="random" departSpeed="10" />
<vehicle id="E_N_156" type="standard_car" route="E_N" depart="156" departLane="random" departSpeed="10" />
<vehicle id="W_E_160" type="standard_car" route="W_E" depart="160" departLane="random" departSpeed="10" />
<vehicle id="S_N_163" type="standard_car" route="S_N" depart="163" departLane="random" departSpeed="10" />
<vehicle id="S_N_164" type="standard_car" route="S_N" depart="164" departLane="random" departSpeed="10" />
<vehicle id="S_N_165" type="standard_car" route="S_N" depart="165" departLane="random" departSpeed="10" />
<vehicle id="S_N_176" type="standard_car" route="S_N" depart="176" departLane="random" departSpeed="10" />
<vehicle id="W_E_179" type="standard_car" route="W_E" depart="179" departLane="random" departSpeed="10" />
<vehicle id="S_N_180" type="standard_car" route="S_N" depart="180" departLane="random" departSpeed="10" />
<vehicle id="E_N_186" type="standard_car" route="E_N" depart="186" departLane="random" departSpeed="10" />
<vehicle id="N_W_186" type="standard_car" route="N_W" depart="186" departLane="random" departSpeed="10" />
<vehicle id="N_S_187" type="standard_car" route="N_S" depart="187" departLane="random" departSpeed="10" />
<vehicle id="E_N_189" type="standard_car" route="E_N" depart="189" departLane="random" departSpeed="10" />
<vehicle id="E_S_192" type="standard_car" route="E_S" depart="192" departLane="random" departSpeed="10" />
<vehicle id="E_W_195" type="standard_car" route="E_W" depart="195" departLane="random" departSpeed="10" />
<vehicle id="E_W_199" type="standard_car" route="E_W" depart="199" departLane="random" departSpeed="10" />
<vehicle id="S_N_200" type="standard_car" route="S_N" depart="200" departLane="random" departSpeed="10" />
<vehicle id="S_N_203" type="standard_car" route="S_N" depart="203" departLane="random" departSpeed="10" />
<vehicle id="E_N_205" type="standard_car" route="E_N" depart="205" departLane="random" departSpeed="10" />
<vehicle id="E_W_205" type="standard_car" route="E_W" depart="205" departLane="random" departSpeed="10" />
<vehicle id="S_N_207" type="standard_car" route="S_N" depart="207" departLane="random" departSpeed="10" />
<vehicle id="N_S_213" type="standard_car" route="N_S" depart="213" departLane="random" departSpeed="10" />
<vehicle id="W_E_221" type="standard_car" route="W_E" depart="221" departLane="random" departSpeed="10" />
<vehicle id="W_E_222" type="standard_car" route="W_E" depart="222" departLane="random" departSpeed="10" />
<vehicle id="W_S_225" type="standard_car" route="W_S" depart="225" departLane="random" departSpeed="10" />
<vehicle id="S_N_227" type="standard_car" route="S_N" depart="227" departLane="random" departSpeed="10" />
<vehicle id="N_S_244" type="standard_car" route="N_S" depart="244" departLane="random" departSpeed="10" />
<vehicle id="W_E_244" type="standard_car" route="W_E" depart="244" departLane="random" departSpeed="10" />
<vehicle id="N_W_245" type="standard_car" route="N_W" depart="245" departLane="random" departSpeed="10" />
<vehicle id="S_N_250" type="standard_car" route="S_N" depart="250" departLane="random" departSpeed="10" />
<vehicle id="W_N_253" type="standard_car" route="W_N" depart="253" departLane="random" departSpeed="10" />
<vehicle id="E_S_261" type="standard_car" route="E_S" depart="261" departLane="random" departSpeed="10" />
<vehicle id="E_W_270" type="standard_car" route="E_W" depart="270" departLane="random" departSpeed="10" />
<vehicle id="E_N_272" type="standard_car" route="E_N" depart="272" departLane="random" departSpeed="10" />
<vehicle id="N_S_272" type="standard_car" route="N_S" depart="272" departLane="random" departSpeed="10" />
<vehicle id="S_N_274" type="standard_car" route="S_N" depart="274" departLane="random" departSpeed="10" />
<vehicle id="W_E_276" type="standard_car" route="W_E" depart="276" departLane="random" departSpeed="10" />
<vehicle id="E_N_281" type="standard_car" route="E_N" depart="281" departLane="random" departSpeed="10" />
<vehicle id="W_E_283" type="standard_car" route="W_E" depart="283" departLane="random" departSpeed="10" />
<vehicle id="E_W_291" type="standard_car" route="E_W" depart="291" departLane="random" departSpeed="10" />
<vehicle id="E_N_297" type="standard_car" route="E_N" depart="297" departLane="random" departSpeed="10" />
<vehicle id="S_N_298" type="standard_car" route="S_N" depart="298" departLane="random" departSpeed="10" />
<vehicle id="E_W_301" type="standard_car" route="E_W" depart="301" departLane="random" departSpeed="10" />
<vehicle id="N_W_301" type="standard_car" route="N_W" depart="301" departLane="random" departSpeed="10" />
<vehicle id="N_S_305" type="standard_car" route="N_S" depart="305" departLane="random" departSpeed="10" />
<vehicle id="N_E_311" type="standard_car" route="N_E" depart="311" departLane="random" departSpeed="10" />
<vehicle id="E_W_312" type="standard_car" route="E_W" depart="312" departLane="random" departSpeed="10" />
<vehicle id="E_W_321" type="standard_car" route="E_W" depart="321" departLane="random" departSpeed="10" />
<vehicle id="E_N_322" type="standard_car" route="E_N" depart="322" departLane="random" departSpeed="10" />
<vehicle id="W_N_322" type="standard_car" route="W_N" depart="322" departLane="random" departSpeed="10" />
<vehicle id="E_W_326" type="standard_car" route="E_W" depart="326" departLane="random" departSpeed="10" />
<vehicle id="S_W_339" type="standard_car" route="S_W" depart="339" departLane="random" departSpeed="10" />
<vehicle id="E_W_341" type="standard_car" route="E_W" depart="341" departLane="random" departSpeed="10" />
<vehicle id="W_N_342" type="standard_car" route="W_N" depart="342" departLane="random" departSpeed="10" />
<vehicle id="N_S_344" type="standard_car" route="N_S" depart="344" departLane="random" departSpeed="10" />
<vehicle id="S_N_354" type="standard_car" route="S_N" depart="354" departLane="random" departSpeed="10" />
<vehicle id="S_E_355" type="standard_car" route="S_E" depart="355" departLane="random" departSpeed="10" />
<vehicle id="S_N_359" type="standard_car" route="S_N" depart="359" departLane="random" departSpeed="10" />
<vehicle id="N_W_360" type="standard_car" route="N_W" depart="360" departLane="random" departSpeed="10" />
<vehicle id="E_N_366" type="standard_car" route="E_N" depart="366" departLane="random" departSpeed="10" />
<vehicle id="S_E_377" type="standard_car" route="S_E" depart="377" departLane="random" departSpeed="10" />
<vehicle id="W_E_385" type="standard_car" route="W_E" depart="385" departLane="random" departSpeed="10" />
<vehicle id="N_S_388" type="standard_car" route="N_S" depart="388" departLane="random" departSpeed="10" />
<vehicle id="S_N_389" type="standard_car" route="S_N" depart="389" departLane="random" departSpeed="10" />
<vehicle id="N_S_394" type="standard_car" route="N_S" depart="394" departLane="random" departSpeed="10" />
<vehicle id="S_N_394" type="standard_car" route="S_N" depart="394" departLane="random" departSpeed="10" />
<vehicle id="E_N_395" type="standard_car" route="E_N" depart="395" departLane="random" departSpeed="10" />
<vehicle id="W_N_395" type="standard_car" route="W_N" depart="395" departLane="random" departSpeed="10" />
<vehicle id="E_W_399" type="standard_car" route="E_W" depart="399" departLane="random" departSpeed="10" />
<vehicle id="N_S_400" type="standard_car" route="N_S" depart="400" departLane="random" departSpeed="10" />
<vehicle id="N_S_403" type="standard_car" route="N_S" depart="403" departLane="random" departSpeed="10" />
<vehicle id="E_S_408" type="standard_car" route="E_S" depart="408" departLane="random" departSpeed="10" />
<vehicle id="W_S_409" type="standard_car" route="W_S" depart="409" departLane="random" departSpeed="10" />
<vehicle id="N_S_414" type="standard_car" route="N_S" depart="414" departLane="random" departSpeed="10" />
<vehicle id="W_E_414" type="standard_car" route="W_E" depart="414" departLane="random" departSpeed="10" />
<vehicle id="E_W_415" type="standard_car" route="E_W" depart="415" departLane="random" departSpeed="10" />
<vehicle id="N_S_418" type="standard_car" route="N_S" depart="418" departLane="random" departSpeed="10" />
<vehicle id="E_W_421" type="standard_car" route="E_W" depart="421" departLane="random" departSpeed="10" />
<vehicle id="E_W_428" type="standard_car" route="E_W" depart="428" departLane="random" departSpeed="10" />
<vehicle id="N_S_435" type="standard_car" route="N_S" depart="435" departLane="random" departSpeed="10" />
<vehicle id="S_N_436" type="standard_car" route="S_N" depart="436" departLane="random" departSpeed="10" />
<vehicle id="E_N_439" type="standard_car" route="E_N" depart="439" departLane="random" departSpeed="10" />
<vehicle id="S_N_443" type="standard_car" route="S_N" depart="443" departLane="random" departSpeed="10" />
<vehicle id="W_N_444" type="standard_car" route="W_N" depart="444" departLane="random" departSpeed="10" />
<vehicle id="E_W_445" type="standard_car" route="E_W" depart="445" departLane="random" departSpeed="10" />
<vehicle id="N_S_446" type="standard_car" route="N_S" depart="446" departLane="random" departSpeed="10" />
<vehicle id="S_N_446" type="standard_car" route="S_N" depart="446" departLane="random" departSpeed="10" />
<vehicle id="N_W_456" type="standard_car" route="N_W" depart="456" departLane="random" departSpeed="10" />
<vehicle id="W_E_459" type="standard_car" route="W_E" depart="459" departLane="random" departSpeed="10" />
<vehicle id="N_W_469" type="standard_car" route="N_W" depart="469" departLane="random" departSpeed="10" />
<vehicle id="E_W_484" type="standard_car" route="E_W" depart="484" departLane="random" departSpeed="10" />
<vehicle id="W_E_486" type="standard_car" route="W_E" depart="486" departLane="random" departSpeed="10" />
<vehicle id="N_S_487" type="standard_car" route="N_S" depart="487" departLane="random" departSpeed="10" />
<vehicle id="S_E_487" type="standard_car" route="S_E" depart="487" departLane="random" departSpeed="10" />
<vehicle id="S_E_494" type="standard_car" route="S_E" depart="494" departLane="random" departSpeed="10" />
<vehicle id="E_W_499" type="standard_car" route="E_W" depart="499" departLane="random" departSpeed="10" />
<vehicle id="S_N_502" type="standard_car" route="S_N" depart="502" departLane="random" departSpeed="10" />
<vehicle id="N_S_509" type="standard_car" route="N_S" depart="509" departLane="random" departSpeed="10" />
<vehicle id="W_S_519" type="standard_car" route="W_S" depart="519" departLane="random" departSpeed="10" />
<vehicle id="W_N_521" type="standard_car" route="W_N" depart="521" departLane="random" departSpeed="10" />
<vehicle id="E_W_522" type="standard_car" route="E_W" depart="522" departLane="random" departSpeed="10" />
<vehicle id="S_N_529" type="standard_car" route="S_N" depart="529" departLane="random" departSpeed="10" />
<vehicle id="S_N_533" type="standard_car" route="S_N" depart="533" departLane="random" departSpeed="10" />
<vehicle id="S_W_533" type="standard_car" route="S_W" depart="533" departLane="random" departSpeed="10" />
<vehicle id="S_E_534" type="standard_car" route="S_E" depart="534" departLane="random" departSpeed="10" />
<vehicle id="N_S_537" type="standard_car" route="N_S" depart="537" departLane="random" departSpeed="10" />
<vehicle id="S_N_539" type="standard_car" route="S_N" depart="539" departLane="random" departSpeed="10" />
<vehicle id="S_E_541" type="standard_car" route="S_E" depart="541" departLane="random" departSpeed="10" />
<vehicle id="E_N_543" type="standard_car" route="E_N" depart="543" departLane="random" departSpeed="10" />
<vehicle id="W_N_544" type="standard_car" route="W_N" depart="544" departLane="random" departSpeed="10" />
<vehicle id="N_S_546" type="standard_car" route="N_S" depart="546" departLane="random" departSpeed="10" />
<vehicle id="W_E_551" type="standard_car" route="W_E" depart="551" departLane="random" departSpeed="10" />
<vehicle id="S_N_560" type="standard_car" route="S_N" depart="560" departLane="random" departSpeed="10" />
<vehicle id="N_S_566" type="standard_car" route="N_S" depart="566" departLane="random" departSpeed="10" />
<vehicle id="N_E_569" type="standard_car" route="N_E" depart="569" departLane="random" departSpeed="10" />
<vehicle id="S_N_570" type="standard_car" route="S_N" depart="570" departLane="random" departSpeed="10" />
<vehicle id="S_N_571" type="standard_car" route="S_N" depart="571" departLane="random" departSpeed="10" />
<vehicle id="E_W_588" type="standard_car" route="E_W" depart="588" departLane="random" departSpeed="10" />
<vehicle id="E_W_592" type="standard_car" route="E_W" depart="592" departLane="random" departSpeed="10" />
<vehicle id="S_E_593" type="standard_car" route="S_E" depart="593" departLane="random" departSpeed="10" />
<vehicle id="N_S_598" type="standard_car" route="N_S" depart="598" departLane="random" departSpeed="10" />
<vehicle id="N_S_600" type="standard_car" route="N_S" depart="600" departLane="random" departSpeed="10" />
<vehicle id="W_S_600" type="standard_car" route="W_S" depart="600" departLane="random" departSpeed="10" />
<vehicle id="S_E_605" type="standard_car" route="S_E" depart="605" departLane="random" departSpeed="10" />
<vehicle id="E_W_612" type="standard_car" route="E_W" depart="612" departLane="random" departSpeed="10" />
<vehicle id="W_E_615" type="standard_car" route="W_E" depart="615" departLane="random" departSpeed="10" />
<vehicle id="S_W_616" type="standard_car" route="S_W" depart="616" departLane="random" departSpeed="10" />
<vehicle id="E_W_617" type="standard_car" route="E_W" depart="617" departLane="random" departSpeed="10" />
<vehicle id="N_E_625" type="standard_car" route="N_E" depart="625" departLane="random" departSpeed="10" />
<vehicle id="W_E_629" type="standard_car" route="W_E" depart="629" departLane="random" departSpeed="10" />
<vehicle id="W_S_632" type="standard_car" route="W_S" depart="632" departLane="random" departSpeed="10" />
<vehicle id="W_E_635" type="standard_car" route="W_E" depart="635" departLane="random" departSpeed="10" />
<vehicle id="E_N_642" type="standard_car" route="E_N" depart="642" departLane="random" departSpeed="10" />
<vehicle id="W_E_642" type="standard_car" route="W_E" depart="642" departLane="random" departSpeed="10" />
<vehicle id="E_N_643" type="standard_car" route="E_N" depart="643" departLane="random" departSpeed="10" />
<vehicle id="S_E_650" type="standard_car" route="S_E" depart="650" departLane="random" departSpeed="10" />
<vehicle id="S_W_652" type="standard_car" route="S_W" depart="652" departLane="random" departSpeed="10" />
<vehicle id="S_N_654" type="standard_car" route="S_N" depart="654" departLane="random" departSpeed="10" />
<vehicle id="S_N_656" type="standard_car" route="S_N" depart="656" departLane="random" departSpeed="10" />
<vehicle id="S_N_659" type="standard_car" route="S_N" depart="659" departLane="random" departSpeed="10" />
<vehicle id="W_E_662" type="standard_car" route="W_E" depart="662" departLane="random" departSpeed="10" />
<vehicle id="N_S_666" type="standard_car" route="N_S" depart="666" departLane="random" departSpeed="10" />
<vehicle id="S_N_676" type="standard_car" route="S_N" depart="676" departLane="random" departSpeed="10" />
<vehicle id="W_E_677" type="standard_car" route="W_E" depart="677" departLane="random" departSpeed="10" />
<vehicle id="W_E_678" type="standard_car" route="W_E" depart="678" departLane="random" departSpeed="10" />
<vehicle id="E_S_680" type="standard_car" route="E_S" depart="680" departLane="random" departSpeed="10" />
<vehicle id="S_E_682" type="standard_car" route="S_E" depart="682" departLane="random" departSpeed="10" />
<vehicle id="E_W_687" type="standard_car" route="E_W" depart="687" departLane="random" departSpeed="10" />
<vehicle id="S_N_691" type="standard_car" route="S_N" depart="691" departLane="random" departSpeed="10" />
<vehicle id="W_E_699" type="standard_car" route="W_E" depart="699" departLane="random" departSpeed="10" />
<vehicle id="S_E_702" type="standard_car" route="S_E" depart="702" departLane="random" departSpeed="10" />
<vehicle id="N_S_703" type="standard_car" route="N_S" depart="703" departLane="random" departSpeed="10" />
<vehicle id="E_W_704" type="standard_car" route="E_W" depart="704" departLane="random" departSpeed="10" />
<vehicle id="N_E_705" type="standard_car" route="N_E" depart="705" departLane="random" departSpeed="10" />
<vehicle id="W_E_705" type="standard_car" route="W_E" depart="705" departLane="random" departSpeed="10" />
<vehicle id="W_N_706" type="standard_car" route="W_N" depart="706" departLane="random" departSpeed="10" />
<vehicle id="S_E_709" type="standard_car" route="S_E" depart="709" departLane="random" departSpeed="10" />
<vehicle id="S_N_712" type="standard_car" route="S_N" depart="712" departLane="random" departSpeed="10" />
<vehicle id="S_N_718" type="standard_car" route="S_N" depart="718" departLane="random" departSpeed="10" />
<vehicle id="N_W_719" type="standard_car" route="N_W" depart="719" departLane="random" departSpeed="10" />
<vehicle id="W_E_720" type="standard_car" route="W_E" depart="720" departLane="random" departSpeed="10" />
<vehicle id="W_N_720" type="standard_car" route="W_N" depart="720" departLane="random" departSpeed="10" />
<vehicle id="E_W_729" type="standard_car" route="E_W" depart="729" departLane="random" departSpeed="10" />
<vehicle id="W_S_729" type="standard_car" route="W_S" depart="729" departLane="random" departSpeed="10" />
<vehicle id="E_W_732" type="standard_car" route="E_W" depart="732" departLane="random" departSpeed="10" />
<vehicle id="S_N_732" type="standard_car" route="S_N" depart="732" departLane="random" departSpeed="10" />
<vehicle id="W_S_734" type="standard_car" route="W_S" depart="734" departLane="random" departSpeed="10" />
<vehicle id="S_N_736" type="standard_car" route="S_N" depart="736" departLane="random" departSpeed="10" />
<vehicle id="S_N_740" type="standard_car" route="S_N" depart="740" departLane="random" departSpeed="10" />
<vehicle id="W_E_747" type="standard_car" route="W_E" depart="747" departLane="random" departSpeed="10" />
<vehicle id="N_E_752" type="standard_car" route="N_E" depart="752" departLane="random" departSpeed="10" />
<vehicle id="N_S_757" type="standard_car" route="N_S" depart="757" departLane="random" departSpeed="10" />
<vehicle id="N_S_758" type="standard_car" route="N_S" depart="758" departLane="random" departSpeed="10" />
<vehicle id="N_S_762" type="standard_car" route="N_S" depart="762" departLane="random" departSpeed="10" />
<vehicle id="S_W_762" type="standard_car" route="S_W" depart="762" departLane="random" departSpeed="10" />
<vehicle id="S_N_765" type="standard_car" route="S_N" depart="765" departLane="random" departSpeed="10" />
<vehicle id="N_S_776" type="standard_car" route="N_S" depart="776" departLane="random" departSpeed="10" />
<vehicle id="S_N_788" type="standard_car" route="S_N" depart="788" departLane="random" departSpeed="10" />
<vehicle id="W_E_790" type="standard_car" route="W_E" depart="790" departLane="random" departSpeed="10" />
<vehicle id="N_W_793" type="standard_car" route="N_W" depart="793" departLane="random" departSpeed="10" />
<vehicle id="E_N_794" type="standard_car" route="E_N" depart="794" departLane="random" departSpeed="10" />
<vehicle id="E_W_797" type="standard_car" route="E_W" depart="797" departLane="random" departSpeed="10" />
<vehicle id="S_N_798" type="standard_car" route="S_N" depart="798" departLane="random" departSpeed="10" />
<vehicle id="W_E_800" type="standard_car" route="W_E" depart="800" departLane="random" departSpeed="10" />
<vehicle id="S_E_803" type="standard_car" route="S_E" depart="803" departLane="random" departSpeed="10" />
<vehicle id="N_S_807" type="standard_car" route="N_S" depart="807" departLane="random" departSpeed="10" />
<vehicle id="N_S_810" type="standard_car" route="N_S" depart="810" departLane="random" departSpeed="10" />
<vehicle id="S_N_810" type="standard_car" route="S_N" depart="810" departLane="random" departSpeed="10" />
<vehicle id="N_W_811" type="standard_car" route="N_W" depart="811" departLane="random" departSpeed="10" />
<vehicle id="N_S_812" type="standard_car" route="N_S" depart="812" departLane="random" departSpeed="10" />
<vehicle id="N_S_814" type="standard_car" route="N_S" depart="814" departLane="random" departSpeed="10" />
<vehicle id="W_S_817" type="standard_car" route="W_S" depart="817" departLane="random" departSpeed="10" />
<vehicle id="W_E_817" type="standard_car" route="W_E" depart="817" departLane="random" departSpeed="10" />
<vehicle id="W_S_821" type="standard_car" route="W_S" depart="821" departLane="random" departSpeed="10" />
<vehicle id="S_N_825" type="standard_car" route="S_N" depart="825" departLane="random" departSpeed="10" />
<vehicle id="S_N_826" type="standard_car" route="S_N" depart="826" departLane="random" departSpeed="10" />
<vehicle id="E_W_832" type="standard_car" route="E_W" depart="832" departLane="random" departSpeed="10" />
<vehicle id="S_N_833" type="standard_car" route="S_N" depart="833" departLane="random" departSpeed="10" />
<vehicle id="S_E_837" type="standard_car" route="S_E" depart="837" departLane="random" departSpeed="10" />
<vehicle id="S_N_837" type="standard_car" route="S_N" depart="837" departLane="random" departSpeed="10" />
<vehicle id="N_W_843" type="standard_car" route="N_W" depart="843" departLane="random" departSpeed="10" />
<vehicle id="W_E_849" type="standard_car" route="W_E" depart="849" departLane="random" departSpeed="10" />
<vehicle id="N_S_850" type="standard_car" route="N_S" depart="850" departLane="random" departSpeed="10" />
<vehicle id="S_N_850" type="standard_car" route="S_N" depart="850" departLane="random" departSpeed="10" />
<vehicle id="S_N_852" type="standard_car" route="S_N" depart="852" departLane="random" departSpeed="10" />
<vehicle id="E_W_854" type="standard_car" route="E_W" depart="854" departLane="random" departSpeed="10" />
<vehicle id="W_S_857" type="standard_car" route="W_S" depart="857" departLane="random" departSpeed="10" />
<vehicle id="W_N_859" type="standard_car" route="W_N" depart="859" departLane="random" departSpeed="10" />
<vehicle id="N_E_860" type="standard_car" route="N_E" depart="860" departLane="random" departSpeed="10" />
<vehicle id="W_E_861" type="standard_car" route="W_E" depart="861" departLane="random" departSpeed="10" />
<vehicle id="E_W_865" type="standard_car" route="E_W" depart="865" departLane="random" departSpeed="10" />
<vehicle id="S_N_869" type="standard_car" route="S_N" depart="869" departLane="random" departSpeed="10" />
<vehicle id="N_S_872" type="standard_car" route="N_S" depart="872" departLane="random" departSpeed="10" />
<vehicle id="W_S_878" type="standard_car" route="W_S" depart="878" departLane="random" departSpeed="10" />
<vehicle id="E_W_880" type="standard_car" route="E_W" depart="880" departLane="random" departSpeed="10" />
<vehicle id="S_N_882" type="standard_car" route="S_N" depart="882" departLane="random" departSpeed="10" />
<vehicle id="N_S_887" type="standard_car" route="N_S" depart="887" departLane="random" departSpeed="10" />
<vehicle id="E_W_893" type="standard_car" route="E_W" depart="893" departLane="random" departSpeed="10" />
<vehicle id="S_W_893" type="standard_car" route="S_W" depart="893" departLane="random" departSpeed="10" />
<vehicle id="E_S_895" type="standard_car" route="E_S" depart="895" departLane="random" departSpeed="10" />
<vehicle id="S_E_905" type="standard_car" route="S_E" depart="905" departLane="random" departSpeed="10" />
<vehicle id="W_E_908" type="standard_car" route="W_E" depart="908" departLane="random" departSpeed="10" />
<vehicle id="S_E_909" type="standard_car" route="S_E" depart="909" departLane="random" departSpeed="10" />
<vehicle id="E_W_910" type="standard_car" route="E_W" depart="910" departLane="random" departSpeed="10" />
<vehicle id="W_S_911" type="standard_car" route="W_S" depart="911" departLane="random" departSpeed="10" />
<vehicle id="E_W_919" type="standard_car" route="E_W" depart="919" departLane="random" departSpeed="10" />
<vehicle id="S_N_922" type="standard_car" route="S_N" depart="922" departLane="random" departSpeed="10" />
<vehicle id="N_S_927" type="standard_car" route="N_S" depart="927" departLane="random" departSpeed="10" />
<vehicle id="E_N_930" type="standard_car" route="E_N" depart="930" departLane="random" departSpeed="10" />
<vehicle id="N_W_933" type="standard_car" route="N_W" depart="933" departLane="random" departSpeed="10" />
<vehicle id="E_W_934" type="standard_car" route="E_W" depart="934" departLane="random" departSpeed="10" />
<vehicle id="W_S_934" type="standard_car" route="W_S" depart="934" departLane="random" departSpeed="10" />