<routes> 
<vType accel="1.0" decel="4.5" id="standard_car" length="5.0" minGap="2.5" maxSpeed="25" sigma="0.5" />
<route id="E_N" edges="1i 2o"/>
<route id="E_W" edges="1i 3o"/>
<route id="E_S" edges="1i 4o"/>
<route id="N_W" edges="2i 3o"/>
<route id="N_S" edges="2i 4o"/>
<route id="N_E" edges="2i 1o"/>
<route id="W_S" edges="3i 4o"/>
<route id="W_E" edges="3i 1o"/>
<route id="W_N" edges="3i 2o"/>
<route id="S_E" edges="4i 1o"/>
<route id="S_N" edges="4i 2o"/>
<route id="S_W" edges="4i 3o"/>
<vehicle id="N_S_1" type="standard_car" route="N_S" depart="1" departLane="random" departSpeed="10" />
<vehicle id="N_S_2" type="standard_car" route="N_S" depart="2" departLane="random" departSpeed="10" />
<vehicle id="W_E_3" type="standard_car" route="W_E" depart="3" departLane="random" departSpeed="10" />
<vehicle id="E_W_4" type="standard_car" route="E_W" depart="4" departLane="random" departSpeed="10" />
<vehicle id="N_W_4" type="standard_car" route="N_W" depart="4" departLane="random" departSpeed="10" />
<vehicle id="W_S_6" type="standard_car" route="W_S" depart="6" departLane="random" departSpeed="10" />
<vehicle id="E_W_8" type="standard_car" route="E_W" depart="8" departLane="random" departSpeed="10" />
<vehicle id="E_S_9" type="standard_car" route="E_S" depart="9" departLane="random" departSpeed="10" />
<vehicle id="S_E_16" type="standard_car" route="S_E" depart="16" departLane="random" departSpeed="10" />
<vehicle id="W_N_21" type="standard_car" route="W_N" depart="21" departLane="random" departSpeed="10" />
<vehicle id="W_E_24" type="standard_car" route="W_E" depart="24" departLane="random" departSpeed="10" />
<vehicle id="S_E_24" type="standard_car" route="S_E" depart="24" departLane="random" departSpeed="10" />
<vehicle id="S_E_26" type="standard_car" route="S_E" depart="26" departLane="random" departSpeed="10" />
<vehicle id="E_S_28" type="standard_car" route="E_S" depart="28" departLane="random" departSpeed="10" />
<vehicle id="S_N_28" type="standard_car" route="S_N" depart="28" departLane="random" departSpeed="10" />
<vehicle id="W_E_29" type="standard_car" route="W_E" depart="29" departLane="random" departSpeed="10" />
<vehicle id="N_S_30" type="standard_car" route="N_S" depart="30" departLane="random" departSpeed="10" />
<vehicle id="N_E_30" type="standard_car" route="N_E" depart="30" departLane="random" departSpeed="10" />
<vehicle id="W_S_31" type="standard_car" route="W_S" depart="31" departLane="random" departSpeed="10" />
<vehicle id="S_N_35" type="standard_car" route="S_N" depart="35" departLane="random" departSpeed="10" />
<vehicle id="S_W_47" type="standard_car" route="S_W" depart="47" departLane="random" departSpeed="10" />
<vehicle id="N_E_50" type="standard_car" route="N_E" depart="50" departLane="random" departSpeed="10" />
<vehicle id="S_E_51" type="standard_car" route="S_E" depart="51" departLane="random" departSpeed="10" />
<vehicle id="E_S_54" type="standard_car" route="E_S" depart="54" departLane="random" departSpeed="10" />
<vehicle id="N_E_55" type="standard_car" route="N_E" depart="55" departLane="random" departSpeed="10" />
<vehicle id="E_N_56" type="standard_car" route="E_N" depart="56" departLane="random" departSpeed="10" />
<vehicle id="S_N_56" type="standard_car" route="S_N" depart="56" departLane="random" departSpeed="10" />
<vehicle id="W_E_60" type="standard_car" route="W_E" depart="60" departLane="random" departSpeed="10" />
<vehicle id="W_S_66" type="standard_car" route="W_S" depart="66" departLane="random" departSpeed="10" />
<vehicle id="N_E_69" type="standard_car" route="N_E" depart="69" departLane="random" departSpeed="10" />
<vehicle id="W_E_76" type="standard_car" route="W_E" depart="76" departLane="random" departSpeed="10" />
<vehicle id="S_E_78" type="standard_car" route="S_E" depart="78" departLane="random" departSpeed="10" />
<vehicle id="E_N_79" type="standard_car" route="E_N" depart="79" departLane="random" departSpeed="10" />
<vehicle id="W_S_80" type="standard_car" route="W_S" depart="80" departLane="random" departSpeed="10" />
<vehicle id="E_S_81" type="standard_car" route="E_S" depart="81" departLane="random" departSpeed="10" />
<vehicle id="S_W_81" type="standard_car" route="S_W" depart="81" departLane="random" departSpeed="10" />
<vehicle id="E_W_83" type="standard_car" route="E_W" depart="83" departLane="random" departSpeed="10" />
<vehicle id="W_E_83" type="standard_car" route="W_E" depart="83" departLane="random" departSpeed="10" />
<vehicle id="N_S_84" type="standard_car" route="N_S" depart="84" departLane="random" departSpeed="10" />
<vehicle id="S_N_88" type="standard_car" route="S_N" depart="88" departLane="random" departSpeed="10" />
<vehicle id="N_S_89" type="standard_car" route="N_S" depart="89" departLane="random" departSpeed="10" />
<vehicle id="E_S_90" type="standard_car" route="E_S" depart="90" departLane="random" departSpeed="10" />
<vehicle id="S_N_91" type="standard_car" route="S_N" depart="91" departLane="random" departSpeed="10" />
<vehicle id="N_W_92" type="standard_car" route="N_W" depart="92" departLane="random" departSpeed="10" />
<vehicle id="W_E_94" type="standard_car" route="W_E" depart="94" departLane="random" departSpeed="10" />
<vehicle id="S_W_95" type="standard_car" route="S_W" depart="95" departLane="random" departSpeed="10" />
<vehicle id="W_N_96" type="standard_car" route="W_N" depart="96" departLane="random" departSpeed="10" />
<vehicle id="N_W_98" type="standard_car" route="N_W" depart="98" departLane="random" departSpeed="10" />
<vehicle id="E_S_105" type="standard_car" route="E_S" depart="105" departLane="random" departSpeed="10" />
<vehicle id="W_S_107" type="standard_car" route="W_S" depart="107" departLane="random" departSpeed="10" />
<vehicle id="N_S_108" type="standard_car" route="N_S" depart="108" departLane="random" departSpeed="10" />
<vehicle id="S_E_111" type="standard_car" route="S_E" depart="111" departLane="random" departSpeed="10" />
<vehicle id="S_N_112" type="standard_car" route="S_N" depart="112" departLane="random" departSpeed="10" />
<vehicle id="E_S_113" type="standard_car" route="E_S" depart="113" departLane="random" departSpeed="10" />
<vehicle id="S_W_113" type="standard_car" route="S_W" depart="113" departLane="random" departSpeed="10" />
<vehicle id="W_S_116" type="standard_car" route="W_S" depart="116" departLane="random" departSpeed="10" />
<vehicle id="S_N_116" type="standard_car" route="S_N" depart="116" departLane="random" departSpeed="10" />
<vehicle id="N_W_120" type="standard_car" route="N_W" depart="120" departLane="random" departSpeed="10" />
<vehicle id="E_W_123" type="standard_car" route="E_W" depart="123" departLane="random" departSpeed="10" />
<vehicle id="E_N_124" type="standard_car" route="E_N" depart="124" departLane="random" departSpeed="10" />
<vehicle id="N_W_128" type="standard_car" route="N_W" depart="128" departLane="random" departSpeed="10" />
<vehicle id="W_E_128" type="standard_car" route="W_E" depart="128" departLane="random" departSpeed="10" />
<vehicle id="E_S_138" type="standard_car" route="E_S" depart="138" departLane="random" departSpeed="10" />
<vehicle id="W_N_140" type="standard_car" route="W_N" depart="140" departLane="random" departSpeed="10" />
<vehicle id="E_S_141" type="standard_car" route="E_S" depart="141" departLane="random" departSpeed="10" />
<vehicle id="W_S_143" type="standard_car" route="W_S" depart="143" departLane="random" departSpeed="10" />
<vehicle id="N_W_147" type="standard_car" route="N_W" depart="147" departLane="random" departSpeed="10" />
<vehicle id="S_E_147" type="standard_car" route="S_E" depart="147" departLane="random" departSpeed="10" />
<vehicle id="N_S_150" type="standard_car" route="N_S" depart="150" departLane="random" departSpeed="10" />
<vehicle id="W_S_150" type="standard_car" route="W_S" depart="150" departLane="random" departSpeed="10" />
<vehicle id="W_E_152" type="standard_car" route="W_E" depart="152" departLane="random" departSpeed="10" />
<vehicle id="N_E_154" type="standard_car" route="N_E" depart="154" departLane="random" departSpeed="10" />
<vehicle id="E_W_158" type="standard_car" route="E_W" depart="158" departLane="random" departSpeed="10" />
<vehicle id="N_E_159" type="standard_car" route="N_E" depart="159" departLane="random" departSpeed="10" />
<vehicle id="E_N_160" type="standard_car" route="E_N" depart="160" departLane="random" departSpeed="10" />
<vehicle id="E_S_162" type="standard_car" route="E_S" depart="162" departLane="random" departSpeed="10" />
<vehicle id="N_E_162" type="standard_car" route="N_E" depart="162" departLane="random" departSpeed="10" />
<vehicle id="W_S_162" type="standard_car" route="W_S" depart="162" departLane="random" departSpeed="10" />
<vehicle id="W_S_165" type="standard_car" route="W_S" depart="165" departLane="random" departSpeed="10" />
<vehicle id="E_W_166" type="standard_car" route="E_W" depart="166" departLane="random" departSpeed="10" />
<vehicle id="E_S_170" type="standard_car" route="E_S" depart="170" departLane="random" departSpeed="10" />
<vehicle id="W_E_173" type="standard_car" route="W_E" depart="173" departLane="random" departSpeed="10" />
<vehicle id="N_E_174" type="standard_car" route="N_E" depart="174" departLane="random" departSpeed="10" />
<vehicle id="S_W_174" type="standard_car" route="S_W" depart="174" departLane="random" departSpeed="10" />
<vehicle id="N_W_175" type="standard_car" route="N_W" depart="175" departLane="random" departSpeed="10" />
<vehicle id="W_S_176" type="standard_car" route="W_S" depart="176" departLane="random" departSpeed="10" />
<vehicle id="E_S_177" type="standard_car" route="E_S" depart="177" departLane="random" departSpeed="10" />
<vehicle id="W_N_177" type="standard_car" route="W_N" depart="177" departLane="random" departSpeed="10" />
<vehicle id="E_N_180" type="standard_car" route="E_N" depart="180" departLane="random" departSpeed="10" />
<vehicle id="S_N_180" type="standard_car" route="S_N" depart="180" departLane="random" departSpeed="10" />
<vehicle id="E_N_183" type="standard_car" route="E_N" depart="183" departLane="random" departSpeed="10" />
<vehicle id="E_W_184" type="standard_car" route="E_W" depart="184" departLane="random" departSpeed="10" />
<vehicle id="S_N_184" type="standard_car" route="S_N" depart="184" departLane="random" departSpeed="10" />
<vehicle id="S_N_188" type="standard_car" route="S_N" depart="188" departLane="random" departSpeed="10" />
<vehicle id="W_N_189" type="standard_car" route="W_N" depart="189" departLane="random" departSpeed="10" />
<vehicle id="W_N_190" type="standard_car" route="W_N" depart="190" departLane="random" departSpeed="10" />
<vehicle id="E_W_195" type="standard_car" route="E_W" depart="195" departLane="random" departSpeed="10" />
<vehicle id="E_S_195" type="standard_car" route="E_S" depart="195" departLane="random" departSpeed="10" />
<vehicle id="W_E_196" type="standard_car" route="W_E" depart="196" departLane="random" departSpeed="10" />
<vehicle id="S_N_196" type="standard_car" route="S_N" depart="196" departLane="random" departSpeed="10" />
<vehicle id="E_S_197" type="standard_car" route="E_S" depart="197" departLane="random" departSpeed="10" />
<vehicle id="S_E_203" type="standard_car" route="S_E" depart="203" departLane="random" departSpeed="10" />
<vehicle id="S_W_203" type="standard_car" route="S_W" depart="203" departLane="random" departSpeed="10" />
<vehicle id="N_E_204" type="standard_car" route="N_E" depart="204" departLane="random" departSpeed="10" />
<vehicle id="S_W_204" type="standard_car" route="S_W" depart="204" departLane="random" departSpeed="10" />
<vehicle id="W_E_206" type="standard_car" route="W_E" depart="206" departLane="random" departSpeed="10" />
<vehicle id="S_W_206" type="standard_car" route="S_W" depart="206" departLane="random" departSpeed="10" />
<vehicle id="E_S_207" type="standard_car" route="E_S" depart="207" departLane="random" departSpeed="10" />
<vehicle id="S_W_207" type="standard_car" route="S_W" depart="207" departLane="random" departSpeed="10" />
<vehicle id="S_E_209" type="standard_car" route="S_E" depart="209" departLane="random" departSpeed="10" />
<vehicle id="N_W_211" type="standard_car" route="N_W" depart="211" departLane="random" departSpeed="10" />
<vehicle id="W_E_213" type="standard_car" route="W_E" depart="213" departLane="random" departSpeed="10" />
<vehicle id="W_S_217" type="standard_car" route="W_S" depart="217" departLane="random" departSpeed="10" />
<vehicle id="W_N_219" type="standard_car" route="W_N" depart="219" departLane="random" departSpeed="10" />
<vehicle id="W_E_220" type="standard_car" route="W_E" depart="220" departLane="random" departSpeed="10" />
<vehicle id="E_W_221" type="standard_car" route="E_W" depart="221" departLane="random" departSpeed="10" />
<vehicle id="E_W_223" type="standard_car" route="E_W" depart="223" departLane="random" departSpeed="10" />
<vehicle id="W_E_223" type="standard_car" route="W_E" depart="223" departLane="random" departSpeed="10" />
<vehicle id="N_W_225" type="standard_car" route="N_W" depart="225" departLane="random" departSpeed="10" />
<vehicle id="E_S_226" type="standard_car" route="E_S" depart="226" departLane="random" departSpeed="10" />
<vehicle id="W_N_226" type="standard_car" route="W_N" depart="226" departLane="random" departSpeed="10" />
<vehicle id="N_E_229" type="standard_car" route="N_E" depart="229" departLane="random" departSpeed="10" />
<vehicle id="E_N_230" type="standard_car" route="E_N" depart="230" departLane="random" departSpeed="10" />
<vehicle id="S_N_230" type="standard_car" route="S_N" depart="230" departLane="random" departSpeed="10" />
<vehicle id="E_W_235" type="standard_car" route="E_W" depart="235" departLane="random" departSpeed="10" />
<vehicle id="E_N_239" type="standard_car" route="E_N" depart="239" departLane="random" departSpeed="10" />
<vehicle id="S_E_239" type="standard_car" route="S_E" depart="239" departLane="random" departSpeed="10" />
<vehicle id="E_S_245" type="standard_car" route="E_S" depart="245" departLane="random" departSpeed="10" />
<vehicle id="S_W_247" type="standard_car" route="S_W" depart="247" departLane="random" departSpeed="10" />
<vehicle id="N_W_250" type="standard_car" route="N_W" depart="250" departLane="random" departSpeed="10" />
<vehicle id="N_W_251" type="standard_car" route="N_W" depart="251" departLane="random" departSpeed="10" />
<vehicle id="E_W_255" type="standard_car" route="E_W" depart="255" departLane="random" departSpeed="10" />
<vehicle id="E_N_256" type="standard_car" route="E_N" depart="256" departLane="random" departSpeed="10" />
<vehicle id="N_W_260" type="standard_car" route="N_W" depart="260" departLane="random" departSpeed="10" />
<vehicle id="W_N_264" type="standard_car" route="W_N" depart="264" departLane="random" departSpeed="10" />
<vehicle id="W_E_272" type="standard_car" route="W_E" depart="272" departLane="random" departSpeed="10" />
<vehicle id="N_S_273" type="standard_car" route="N_S" depart="273" departLane="random" departSpeed="10" />
<vehicle id="N_E_274" type="standard_car" route="N_E" depart="274" departLane="random" departSpeed="10" />
<vehicle id="S_W_274" type="standard_car" route="S_W" depart="274" departLane="random" departSpeed="10" />
<vehicle id="W_E_275" type="standard_car" route="W_E" depart="275" departLane="random" departSpeed="10" />
<vehicle id="E_S_276" type="standard_car" route="E_S" depart="276" departLane="random" departSpeed="10" />
<vehicle id="W_N_278" type="standard_car" route="W_N" depart="278" departLane="random" departSpeed="10" />
<vehicle id="N_S_281" type="standard_car" route="N_S" depart="281" departLane="random" departSpeed="10" />
<vehicle id="N_S_282" type="standard_car" route="N_S" depart="282" departLane="random" departSpeed="10" />
<vehicle id="E_S_283" type="standard_car" route="E_S" depart="283" departLane="random" departSpeed="10" />
<vehicle id="S_W_283" type="standard_car" route="S_W" depart="283" departLane="random" departSpeed="10" />
<vehicle id="N_S_284" type="standard_car" route="N_S" depart="284" departLane="random" departSpeed="10" />
<vehicle id="N_W_287" type="standard_car" route="N_W" depart="287" departLane="random" departSpeed="10" />
<vehicle id="W_N_287" type="standard_car" route="W_N" depart="287" departLane="random" departSpeed="10" />
<vehicle id="E_W_289" type="standard_car" route="E_W" depart="289" departLane="random" departSpeed="10" />
<vehicle id="N_E_291" type="standard_car" route="N_E" depart="291" departLane="random" departSpeed="10" />
<vehicle id="N_W_293" type="standard_car" route="N_W" depart="293" departLane="random" departSpeed="10" />
<vehicle id="E_N_294" type="standard_car" route="E_N" depart="294" departLane="random" departSpeed="10" />
<vehicle id="N_S_298" type="standard_car" route="N_S" depart="298" departLane="random" departSpeed="10" />
<vehicle id="N_E_303" type="standard_car" route="N_E" depart="303" departLane="random" departSpeed="10" />
<vehicle id="N_E_305" type="standard_car" route="N_E" depart="305" departLane="random" departSpeed="10" />
<vehicle id="N_S_313" type="standard_car" route="N_S" depart="313" departLane="random" departSpeed="10" />
<vehicle id="W_S_313" type="standard_car" route="W_S" depart="313" departLane="random" departSpeed="10" />
<vehicle id="E_W_314" type="standard_car" route="E_W" depart="314" departLane="random" departSpeed="10" />
<vehicle id="N_S_318" type="standard_car" route="N_S" depart="318" departLane="random" departSpeed="10" />
<vehicle id="W_N_319" type="standard_car" route="W_N" depart="319" departLane="random" departSpeed="10" />
<vehicle id="E_S_320" type="standard_car" route="E_S" depart="320" departLane="random" departSpeed="10" />
<vehicle id="N_E_321" type="standard_car" route="N_E" depart="321" departLane="random" departSpeed="10" />
<vehicle id="E_S_325" type="standard_car" route="E_S" depart="325" departLane="random" departSpeed="10" />
<vehicle id="E_S_326" type="standard_car" route="E_S" depart="326" departLane="random" departSpeed="10" />
<vehicle id="N_W_326" type="standard_car" route="N_W" depart="326" departLane="random" departSpeed="10" />
<vehicle id="W_S_327" type="standard_car" route="W_S" depart="327" departLane="random" departSpeed="10" />
<vehicle id="E_N_332" type="standard_car" route="E_N" depart="332" departLane="random" departSpeed="10" />
<vehicle id="W_E_334" type="standard_car" route="W_E" depart="334" departLane="random" departSpeed="10" />
<vehicle id="S_W_336" type="standard_car" route="S_W" depart="336" departLane="random" departSpeed="10" />
<vehicle id="N_E_337" type="standard_car" route="N_E" depart="337" departLane="random" departSpeed="10" />
<vehicle id="E_N_340" type="standard_car" route="E_N" depart="340" departLane="random" departSpeed="10" />
<vehicle id="E_S_340" type="standard_car" route="E_S" depart="340" departLane="random" departSpeed="10" />
<vehicle id="S_W_340" type="standard_car" route="S_W" depart="340" departLane="random" departSpeed="10" />
<vehicle id="N_E_344" type="standard_car" route="N_E" depart="344" departLane="random" departSpeed="10" />
<vehicle id="S_N_345" type="standard_car" route="S_N" depart="345" departLane="random" departSpeed="10" />
<vehicle id="N_W_346" type="standard_car" route="N_W" depart="346" departLane="random" departSpeed="10" />
<vehicle id="W_S_347" type="standard_car" route="W_S" depart="347" departLane="random" departSpeed="10" />
<vehicle id="E_W_353" type="standard_car" route="E_W" depart="353" departLane="random" departSpeed="10" />
<vehicle id="N_S_353" type="standard_car" route="N_S" depart="353" departLane="random" departSpeed="10" />
<vehicle id="E_N_354" type="standard_car" route="E_N" depart="354" departLane="random" departSpeed="10" />
<vehicle id="N_S_356" type="standard_car" route="N_S" depart="356" departLane="random" departSpeed="10" />
<vehicle id="E_W_359" type="standard_car" route="E_W" depart="359" departLane="random" departSpeed="10" />
<vehicle id="E_W_360" type="standard_car" route="E_W" depart="360" departLane="random" departSpeed="10" />
<vehicle id="E_N_361" type="standard_car" route="E_N" depart="361" departLane="random" departSpeed="10" />
<vehicle id="S_E_362" type="standard_car" route="S_E" depart="362" departLane="random" departSpeed="10" />
<vehicle id="N_W_365" type="standard_car" route="N_W" depart="365" departLane="random" departSpeed="10" />
<vehicle id="N_S_367" type="standard_car" route="N_S" depart="367" departLane="random" departSpeed="10" />
<vehicle id="W_N_369" type="standard_car" route="W_N" depart="369" departLane="random" departSpeed="10" />
<vehicle id="E_S_372" type="standard_car" route="E_S" depart="372" departLane="random" departSpeed="10" />
<vehicle id="E_W_373" type="standard_car" route="E_W" depart="373" departLane="random" departSpeed="10" />
<vehicle id="N_E_374" type="standard_car" route="N_E" depart="374" departLane="random" departSpeed="10" />
<vehicle id="W_N_374" type="standard_car" route="W_N" depart="374" departLane="random" departSpeed="10" />
<vehicle id="W_E_376" type="standard_car" route="W_E" depart="376" departLane="random" departSpeed="10" />
<vehicle id="N_S_378" type="standard_car" route="N_S" depart="378" departLane="random" departSpeed="10" />
<vehicle id="W_E_382" type="standard_car" route="W_E" depart="382" departLane="random" departSpeed="10" />
<vehicle id="W_S_384" type="standard_car" route="W_S" depart="384" departLane="random" departSpeed="10" />
<vehicle id="N_W_385" type="standard_car" route="N_W" depart="385" departLane="random" departSpeed="10" />
<vehicle id="S_W_387" type="standard_car" route="S_W" depart="387" departLane="random" departSpeed="10" />
<vehicle id="S_N_389" type="standard_car" route="S_N" depart="389" departLane="random" departSpeed="10" />
<vehicle id="E_S_391" type="standard_car" route="E_S" depart="391" departLane="random" departSpeed="10" />
<vehicle id="N_E_392" type="standard_car" route="N_E" depart="392" departLane="random" departSpeed="10" />
<vehicle id="S_E_392" type="standard_car" route="S_E" depart="392" departLane="random" departSpeed="10" />
<vehicle id="E_S_393" type="standard_car" route="E_S" depart="393" departLane="random" departSpeed="10" />
<vehicle id="E_W_395" type="standard_car" route="E_W" depart="395" departLane="random" departSpeed="10" />
<vehicle id="N_W_396" type="standard_car" route="N_W" depart="396" departLane="random" departSpeed="10" />
<vehicle id="W_E_397" type="standard_car" route="W_E" depart="397" departLane="random" departSpeed="10" />
<vehicle id="S_N_404" type="standard_car" route="S_N" depart="404" departLane="random" departSpeed="10" />
<vehicle id="W_E_405" type="standard_car" route="W_E" depart="405" departLane="random" departSpeed="10" />
<vehicle id="N_S_406" type="standard_car" route="N_S" depart="406" departLane="random" departSpeed="10" />
<vehicle id="N_E_409" type="standard_car" route="N_E" depart="409" departLane="random" departSpeed="10" />
<vehicle id="S_N_409" type="standard_car" route="S_N" depart="409" departLane="random" departSpeed="10" />
<vehicle id="W_S_410" type="standard_car" route="W_S" depart="410" departLane="random" departSpeed="10" />
<vehicle id="N_W_411" type="standard_car" route="N_W" depart="411" departLane="random" departSpeed="10" />
<vehicle id="E_S_413" type="standard_car" route="E_S" depart="413" departLane="random" departSpeed="10" />
<vehicle id="N_S_413" type="standard_car" route="N_S" depart="413" departLane="random" departSpeed="10" />
<vehicle id="W_N_413" type="standard_car" route="W_N" depart="413" departLane="random" departSpeed="10" />
<vehicle id="E_N_415" type="standard_car" route="E_N" depart="415" departLane="random" departSpeed="10" />
<vehicle id="W_S_415" type="standard_car" route="W_S" depart="415" departLane="random" departSpeed="10" />
<vehicle id="E_S_419" type="standard_car" route="E_S" depart="419" departLane="random" departSpeed="10" />
<vehicle id="W_S_419" type="standard_car" route="W_S" depart="419" departLane="random" departSpeed="10" />
<vehicle id="W_E_419" type="standard_car" route="W_E" depart="419" departLane="random" departSpeed="10" />
<vehicle id="S_W_422" type="standard_car" route="S_W" depart="422" departLane="random" departSpeed="10" />
<vehicle id="W_N_423" type="standard_car" route="W_N" depart="423" departLane="random" departSpeed="10" />
<vehicle id="N_S_424" type="standard_car" route="N_S" depart="424" departLane="random" departSpeed="10" />
<vehicle id="N_W_426" type="standard_car" route="N_W" depart="426" departLane="random" departSpeed="10" />
<vehicle id="E_W_428" type="standard_car" route="E_W" depart="428" departLane="random" departSpeed="10" />
<vehicle id="E_S_428" type="standard_car" route="E_S" depart="428" departLane="random" departSpeed="10" />
<vehicle id="W_N_429" type="standard_car" route="W_N" depart="429" departLane="random" departSpeed="10" />
<vehicle id="S_W_429" type="standard_car" route="S_W" depart="429" departLane="random" departSpeed="10" />
<vehicle id="N_W_436" type="standard_car" route="N_W" depart="436" departLane="random" departSpeed="10" />
<vehicle id="W_S_436" type="standard_car" route="W_S" depart="436" departLane="random" departSpeed="10" />
<vehicle id="N_E_442" type="standard_car" route="N_E" depart="442" departLane="random" departSpeed="10" />
<vehicle id="N_W_443" type="standard_car" route="N_W" depart="443" departLane="random" departSpeed="10" />
<vehicle id="N_S_446" type="standard_car" route="N_S" depart="446" departLane="random" departSpeed="10" />
<vehicle id="W_N_446" type="standard_car" route="W_N" depart="446" departLane="random" departSpeed="10" />
<vehicle id="S_E_448" type="standard_car" route="S_E" depart="448" departLane="random" departSpeed="10" />
<vehicle id="S_N_449" type="standard_car" route="S_N" depart="449" departLane="random" departSpeed="10" />
<vehicle id="W_E_451" type="standard_car" route="W_E" depart="451" departLane="random" departSpeed="10" />
<vehicle id="E_W_453" type="standard_car" route="E_W" depart="453" departLane="random" departSpeed="10" />
<vehicle id="W_N_453" type="standard_car" route="W_N" depart="453" departLane="random" departSpeed="10" />
<vehicle id="N_W_455" type="standard_car" route="N_W" depart="455" departLane="random" departSpeed="10" />
<vehicle id="E_S_456" type="standard_car" route="E_S" depart="456" departLane="random" departSpeed="10" />
<vehicle id="E_S_457" type="standard_car" route="E_S" depart="457" departLane="random" departSpeed="10" />
<vehicle id="N_W_460" type="standard_car" route="N_W" depart="460" departLane="random" departSpeed="10" />
<vehicle id="W_N_461" type="standard_car" route="W_N" depart="461" departLane="random" departSpeed="10" />
<vehicle id="W_E_462" type="standard_car" route="W_E" depart="462" departLane="random" departSpeed="10" />
<vehicle id="S_E_463" type="standard_car" route="S_E" depart="463" departLane="random" departSpeed="10" />
<vehicle id="W_N_465" type="standard_car" route="W_N" depart="465" departLane="random" departSpeed="10" />
<vehicle id="S_W_468" type="standard_car" route="S_W" depart="468" departLane="random" departSpeed="10" />
<vehicle id="N_E_471" type="standard_car" route="N_E" depart="471" departLane="random" departSpeed="10" />
<vehicle id="E_N_476" type="standard_car" route="E_N" depart="476" departLane="random" departSpeed="10" />
<vehicle id="N_E_482" type="standard_car" route="N_E" depart="482" departLane="random" departSpeed="10" />
<vehicle id="W_N_483" type="standard_car" route="W_N" depart="483" departLane="random" departSpeed="10" />
<vehicle id="N_S_491" type="standard_car" route="N_S" depart="491" departLane="random" departSpeed="10" />
<vehicle id="W_E_494" type="standard_car" route="W_E" depart="494" departLane="random" departSpeed="10" />
<vehicle id="W_N_495" type="standard_car" route="W_N" depart="495" departLane="random" departSpeed="10" />
<vehicle id="S_W_495" type="standard_car" route="S_W" depart="495" departLane="random" departSpeed="10" />
<vehicle id="E_N_496" type="standard_car" route="E_N" depart="496" departLane="random" departSpeed="10" />
<vehicle id="N_E_496" type="standard_car" route="N_E" depart="496" departLane="random" departSpeed="10" />
<vehicle id="W_S_496" type="standard_car" route="W_S" depart="496" departLane="random" departSpeed="10" />
<vehicle id="N_E_497" type="standard_car" route="N_E" depart="497" departLane="random" departSpeed="10" />
<vehicle id="E_S_503" type="standard_car" route="E_S" depart="503" departLane="random" departSpeed="10" />
<vehicle id="W_S_508" type="standard_car" route="W_S" depart="508" departLane="random" departSpeed="10" />
<vehicle id="S_N_514" type="standard_car" route="S_N" depart="514" departLane="random" departSpeed="10" />
<vehicle id="E_W_516" type="standard_car" route="E_W" depart="516" departLane="random" departSpeed="10" />
<vehicle id="W_E_516" type="standard_car" route="W_E" depart="516" departLane="random" departSpeed="10" />
<vehicle id="N_E_519" type="standard_car" route="N_E" depart="519" departLane="random" departSpeed="10" />
<vehicle id="N_E_520" type="standard_car" route="N_E" depart="520" departLane="random" departSpeed="10" />
<vehicle id="N_S_521" type="standard_car" route="N_S" depart="521" departLane="random" departSpeed="10" />
<vehicle id="E_W_523" type="standard_car" route="E_W" depart="523" departLane="random" departSpeed="10" />
<vehicle id="W_E_524" type="standard_car" route="W_E" depart="524" departLane="random" departSpeed="10" />
<vehicle id="S_E_524" type="standard_car" route="S_E" depart="524" departLane="random" departSpeed="10" />
<vehicle id="N_W_525" type="standard_car" route="N_W" depart="525" departLane="random" departSpeed="10" />