<routes> 
<vType accel="1.0" decel="4.5" id="standard_car" length="5.0" minGap="2.5" maxSpeed="25" sigma="0.5" />
<route id="E_N" edges="1i 2o"/>
<route id="E_W" edges="1i 3o"/>
<route id="E_S" edges="1i 4o"/>
<route id="N_W" edges="2i 3o"/>
<route id="N_S" edges="2i 4o"/>
<route id="N_E" edges="2i 1o"/>
<route id="W_S" edges="3i 4o"/>
<route id="W_E" edges="3i 1o"/>
<route id="W_N" edges="3i 2o"/>
<route id="S_E" edges="4i 1o"/>
<route id="S_N" edges="4i 2o"/>
<route id="S_W" edges="4i 3o"/>
<vehicle id="W_E_6" type="standard_car" route="W_E" depart="6" departLane="random" departSpeed="10" />
<vehicle id="N_W_10" type="standard_car" route="N_W" depart="10" departLane="random" departSpeed="10" />
<vehicle id="N_S_10" type="standard_car" route="N_S" depart="10" departLane="random" departSpeed="10" />
<vehicle id="E_S_19" type="standard_car" route="E_S" depart="19" departLane="random" departSpeed="10" />
<vehicle id="S_N_22" type="standard_car" route="S_N" depart="22" departLane="random" departSpeed="10" />
<vehicle id="E_W_24" type="standard_car" route="E_W" depart="24" departLane="random" departSpeed="10" />
<vehicle id="E_S_30" type="standard_car" route="E_S" depart="30" departLane="random" departSpeed="10" />
<vehicle id="S_N_30" type="standard_car" route="S_N" depart="30" departLane="random" departSpeed="10" />
<vehicle id="E_N_33" type="standard_car" route="E_N" depart="33" departLane="random" departSpeed="10" />
<vehicle id="W_E_35" type="standard_car" route="W_E" depart="35" departLane="random" departSpeed="10" />
<vehicle id="S_N_36" type="standard_car" route="S_N" depart="36" departLane="random" departSpeed="10" />
<vehicle id="S_E_40" type="standard_car" route="S_E" depart="40" departLane="random" departSpeed="10" />
<vehicle id="N_S_46" type="standard_car" route="N_S" depart="46" departLane="random" departSpeed="10" />
<vehicle id="E_W_47" type="standard_car" route="E_W" depart="47" departLane="random" departSpeed="10" />
<vehicle id="N_S_50" type="standard_car" route="N_S" depart="50" departLane="random" departSpeed="10" />
<vehicle id="W_E_51" type="standard_car" route="W_E" depart="51" departLane="random" departSpeed="10" />
<vehicle id="E_S_55" type="standard_car" route="E_S" depart="55" departLane="random" departSpeed="10" />
<vehicle id="S_N_62" type="standard_car" route="S_N" depart="62" departLane="random" departSpeed="10" />
<vehicle id="E_N_63" type="standard_car" route="E_N" depart="63" departLane="random" departSpeed="10" />
<vehicle id="E_S_64" type="standard_car" route="E_S" depart="64" departLane="random" departSpeed="10" />
<vehicle id="S_E_64" type="standard_car" route="S_E" depart="64" departLane="random" departSpeed="10" />
<vehicle id="N_S_73" type="standard_car" route="N_S" depart="73" departLane="random" departSpeed="10" />
<vehicle id="W_E_73" type="standard_car" route="W_E" depart="73" departLane="random" departSpeed="10" />
<vehicle id="S_N_75" type="standard_car" route="S_N" depart="75" departLane="random" departSpeed="10" />
<vehicle id="W_E_77" type="standard_car" route="W_E" depart="77" departLane="random" departSpeed="10" />
<vehicle id="W_E_87" type="standard_car" route="W_E" depart="87" departLane="random" departSpeed="10" />
<vehicle id="E_W_88" type="standard_car" route="E_W" depart="88" departLane="random" departSpeed="10" />
<vehicle id="S_N_89" type="standard_car" route="S_N" depart="89" departLane="random" departSpeed="10" />
<vehicle id="E_W_90" type="standard_car" route="E_W" depart="90" departLane="random" departSpeed="10" />
<vehicle id="W_E_91" type="standard_car" route="W_E" depart="91" departLane="random" departSpeed="10" />
<vehicle id="N_E_92" type="standard_car" route="N_E" depart="92" departLane="random" departSpeed="10" />
<vehicle id="W_S_120" type="standard_car" route="W_S" depart="120" departLane="random" departSpeed="10" />
<vehicle id="E_W_121" type="standard_car" route="E_W" depart="121" departLane="random" departSpeed="10" />
<vehicle id="W_S_121" type="standard_car" route="W_S" depart="121" departLane="random" departSpeed="10" />
<vehicle id="W_S_127" type="standard_car" route="W_S" depart="127" departLane="random" departSpeed="10" />
<vehicle id="N_S_132" type="standard_car" route="N_S" depart="132" departLane="random" departSpeed="10" />
<vehicle id="E_W_135" type="standard_car" route="E_W" depart="135" departLane="random" departSpeed="10" />
<vehicle id="S_E_135" type="standard_car" route="S_E" depart="135" departLane="random" departSpeed="10" />
<vehicle id="E_W_137" type="standard_car" route="E_W" depart="137" departLane="random" departSpeed="10" />
<vehicle id="S_N_138" type="standard_car" route="S_N" depart="138" departLane="random" departSpeed="10" />
<vehicle id="E_N_139" type="standard_car" route="E_N" depart="139" departLane="random" departSpeed="10" />
<vehicle id="E_W_141" type="standard_car" route="E_W" depart="141" departLane="random" departSpeed="10" />
<vehicle id="N_S_148" type="standard_car" route="N_S" depart="148" departLane="random" departSpeed="10" />
<vehicle id="S_W_148" type="standard_car" route="S_W" depart="148" departLane="random" departSpeed="10" />
<vehicle id="N_W_158" type="standard_car" route="N_W" depart="158" departLane="random" departSpeed="10" />
<vehicle id="E_W_164" type="standard_car" route="E_W" depart="164" departLane="random" departSpeed="10" />
<vehicle id="N_S_164" type="standard_car" route="N_S" depart="164" departLane="random" departSpeed="10" />
<vehicle id="S_E_167" type="standard_car" route="S_E" depart="167" departLane="random" departSpeed="10" />
<vehicle id="E_W_169" type="standard_car" route="E_W" depart="169" departLane="random" departSpeed="10" />
<vehicle id="N_W_171" type="standard_car" route="N_W" depart="171" departLane="random" departSpeed="10" />
<vehicle id="E_W_172" type="standard_car" route="E_W" depart="172" departLane="random" departSpeed="10" />
<vehicle id="S_N_172" type="standard_car" route="S_N" depart="172" departLane="random" departSpeed="10" />
<vehicle id="S_N_173" type="standard_car" route="S_N" depart="173" departLane="random" departSpeed="10" />
<vehicle id="S_N_177" type="standard_car" route="S_N" depart="177" departLane="random" departSpeed="10" />
<vehicle id="W_E_190" type="standard_car" route="W_E" depart="190" departLane="random" departSpeed="10" />
<vehicle id="E_W_206" type="standard_car" route="E_W" depart="206" departLane="random" departSpeed="10" />
<vehicle id="W_S_208" type="standard_car" route="W_S" depart="208" departLane="random" departSpeed="10" />
<vehicle id="S_E_209" type="standard_car" route="S_E" depart="209" departLane="random" departSpeed="10" />
<vehicle id="N_W_213" type="standard_car" route="N_W" depart="213" departLane="random" departSpeed="10" />
<vehicle id="N_S_213" type="standard_car" route="N_S" depart="213" departLane="random" departSpeed="10" />
<vehicle id="N_S_217" type="standard_car" route="N_S" depart="217" departLane="random" departSpeed="10" />
<vehicle id="N_S_218" type="standard_car" route="N_S" depart="218" departLane="random" departSpeed="10" />
<vehicle id="S_N_221" type="standard_car" route="S_N" depart="221" departLane="random" departSpeed="10" />
<vehicle id="W_S_226" type="standard_car" route="W_S" depart="226" departLane="random" departSpeed="10" />
<vehicle id="W_E_229" type="standard_car" route="W_E" depart="229" departLane="random" departSpeed="10" />
<vehicle id="W_S_230" type="standard_car" route="W_S" depart="230" departLane="random" departSpeed="10" />
<vehicle id="E_W_231" type="standard_car" route="E_W" depart="231" departLane="random" departSpeed="10" />
<vehicle id="W_S_231" type="standard_car" route="W_S" depart="231" departLane="random" departSpeed="10" />
<vehicle id="W_E_233" type="standard_car" route="W_E" depart="233" departLane="random" departSpeed="10" />
<vehicle id="N_W_238" type="standard_car" route="N_W" depart="238" departLane="random" departSpeed="10" />
<vehicle id="W_E_241" type="standard_car" route="W_E" depart="241" departLane="random" departSpeed="10" />
<vehicle id="E_W_245" type="standard_car" route="E_W" depart="245" departLane="random" departSpeed="10" />
<vehicle id="E_N_246" type="standard_car" route="E_N" depart="246" departLane="random" departSpeed="10" />
<vehicle id="N_W_247" type="standard_car" route="N_W" depart="247" departLane="random" departSpeed="10" />
<vehicle id="W_S_249" type="standard_car" route="W_S" depart="249" departLane="random" departSpeed="10" />
<vehicle id="W_E_257" type="standard_car" route="W_E" depart="257" departLane="random" departSpeed="10" />
<vehicle id="W_E_258" type="standard_car" route="W_E" depart="258" departLane="random" departSpeed="10" />
<vehicle id="N_W_261" type="standard_car" route="N_W" depart="261" departLane="random" departSpeed="10" />
<vehicle id="N_S_261" type="standard_car" route="N_S" depart="261" departLane="random" departSpeed="10" />
<vehicle id="N_W_263" type="standard_car" route="N_W" depart="263" departLane="random" departSpeed="10" />
<vehicle id="W_E_266" type="standard_car" route="W_E" depart="266" departLane="random" departSpeed="10" />
<vehicle id="E_N_270" type="standard_car" route="E_N" depart="270" departLane="random" departSpeed="10" />
<vehicle id="N_W_272" type="standard_car" route="N_W" depart="272" departLane="random" departSpeed="10" />
<vehicle id="S_E_272" type="standard_car" route="S_E" depart="272" departLane="random" departSpeed="10" />
<vehicle id="W_N_274" type="standard_car" route="W_N" depart="274" departLane="random" departSpeed="10" />
<vehicle id="S_N_274" type="standard_car" route="S_N" depart="274" departLane="random" departSpeed="10" />
<vehicle id="W_E_277" type="standard_car" route="W_E" depart="277" departLane="random" departSpeed="10" />
<vehicle id="N_S_278" type="standard_car" route="N_S" depart="278" departLane="random" departSpeed="10" />
<vehicle id="W_E_278" type="standard_car" route="W_E" depart="278" departLane="random" departSpeed="10" />
<vehicle id="E_W_279" type="standard_car" route="E_W" depart="279" departLane="random" departSpeed="10" />
<vehicle id="W_E_281" type="standard_car" route="W_E" depart="281" departLane="random" departSpeed="10" />
<vehicle id="S_N_282" type="standard_car" route="S_N" depart="282" departLane="random" departSpeed="10" />
<vehicle id="N_E_286" type="standard_car" route="N_E" depart="286" departLane="random" departSpeed="10" />
<vehicle id="N_S_291" type="standard_car" route="N_S" depart="291" departLane="random" departSpeed="10" />
<vehicle id="S_W_291" type="standard_car" route="S_W" depart="291" departLane="random" departSpeed="10" />
<vehicle id="S_N_301" type="standard_car" route="S_N" depart="301" departLane="random" departSpeed="10" />
<vehicle id="S_N_302" type="standard_car" route="S_N" depart="302" departLane="random" departSpeed="10" />
<vehicle id="W_E_307" type="standard_car" route="W_E" depart="307" departLane="random" departSpeed="10" />
<vehicle id="W_E_312" type="standard_car" route="W_E" depart="312" departLane="random" departSpeed="10" />
<vehicle id="W_N_316" type="standard_car" route="W_N" depart="316" departLane="random" departSpeed="10" />
<vehicle id="E_N_318" type="standard_car" route="E_N" depart="318" departLane="random" departSpeed="10" />
<vehicle id="E_W_318" type="standard_car" route="E_W" depart="318" departLane="random" departSpeed="10" />
<vehicle id="N_S_322" type="standard_car" route="N_S" depart="322" departLane="random" departSpeed="10" />
<vehicle id="E_W_324" type="standard_car" route="E_W" depart="324" departLane="random" departSpeed="10" />
<vehicle id="E_N_325" type="standard_car" route="E_N" depart="325" departLane="random" departSpeed="10" />
<vehicle id="N_S_327" type="standard_car" route="N_S" depart="327" departLane="random" departSpeed="10" />
<vehicle id="E_W_328" type="standard_car" route="E_W" depart="328" departLane="random" departSpeed="10" />
<vehicle id="E_W_333" type="standard_car" route="E_W" depart="333" departLane="random" departSpeed="10" />
<vehicle id="W_E_333" type="standard_car" route="W_E" depart="333" departLane="random" departSpeed="10" />
<vehicle id="W_N_334" type="standard_car" route="W_N" depart="334" departLane="random" departSpeed="10" />
<vehicle id="N_S_338" type="standard_car" route="N_S" depart="338" departLane="random" departSpeed="10" />
<vehicle id="E_W_344" type="standard_car" route="E_W" depart="344" departLane="random" departSpeed="10" />
<vehicle id="N_S_348" type="standard_car" route="N_S" depart="348" departLane="random" departSpeed="10" />
<vehicle id="N_S_354" type="standard_car" route="N_S" depart="354" departLane="random" departSpeed="10" />
<vehicle id="N_S_359" type="standard_car" route="N_S" depart="359" departLane="random" departSpeed="10" />
<vehicle id="S_N_360" type="standard_car" route="S_N" depart="360" departLane="random" departSpeed="10" />
<vehicle id="N_S_361" type="standard_car" route="N_S" depart="361" departLane="random" departSpeed="10" />
<vehicle id="N_S_363" type="standard_car" route="N_S" depart="363" departLane="random" departSpeed="10" />
<vehicle id="W_E_366" type="standard_car" route="W_E" depart="366" departLane="random" departSpeed="10" />
<vehicle id="E_W_367" type="standard_car" route="E_W" depart="367" departLane="random" departSpeed="10" />
<vehicle id="E_W_369" type="standard_car" route="E_W" depart="369" departLane="random" departSpeed="10" />
<vehicle id="S_N_369" type="standard_car" route="S_N" depart="369" departLane="random" departSpeed="10" />
<vehicle id="N_S_370" type="standard_car" route="N_S" depart="370" departLane="random" departSpeed="10" />
<vehicle id="W_E_373" type="standard_car" route="W_E" depart="373" departLane="random" departSpeed="10" />
<vehicle id="E_W_374" type="standard_car" route="E_W" depart="374" departLane="random" departSpeed="10" />
<vehicle id="S_N_378" type="standard_car" route="S_N" depart="378" departLane="random" departSpeed="10" />
<vehicle id="W_S_382" type="standard_car" route="W_S" depart="382" departLane="random" departSpeed="10" />
<vehicle id="N_S_385" type="standard_car" route="N_S" depart="385" departLane="random" departSpeed="10" />
<vehicle id="N_S_386" type="standard_car" route="N_S" depart="386" departLane="random" departSpeed="10" />
<vehicle id="W_E_390" type="standard_car" route="W_E" depart="390" departLane="random" departSpeed="10" />
<vehicle id="E_W_395" type="standard_car" route="E_W" depart="395" departLane="random" departSpeed="10" />
<vehicle id="N_W_396" type="standard_car" route="N_W" depart="396" departLane="random" departSpeed="10" />
<vehicle id="N_S_401" type="standard_car" route="N_S" depart="401" departLane="random" departSpeed="10" />
<vehicle id="W_S_404" type="standard_car" route="W_S" depart="404" departLane="random" departSpeed="10" />
<vehicle id="S_N_405" type="standard_car" route="S_N" depart="405" departLane="random" departSpeed="10" />
<vehicle id="S_E_411" type="standard_car" route="S_E" depart="411" departLane="random" departSpeed="10" />
<vehicle id="S_W_414" type="standard_car" route="S_W" depart="414" departLane="random" departSpeed="10" />
<vehicle id="S_N_420" type="standard_car" route="S_N" depart="420" departLane="random" departSpeed="10" />
<vehicle id="E_S_422" type="standard_car" route="E_S" depart="422" departLane="random" departSpeed="10" />
<vehicle id="N_S_422" type="standard_car" route="N_S" depart="422" departLane="random" departSpeed="10" />
<vehicle id="W_E_423" type="standard_car" route="W_E" depart="423" departLane="random" departSpeed="10" />
<vehicle id="N_S_425" type="standard_car" route="N_S" depart="425" departLane="random" departSpeed="10" />
<vehicle id="W_S_428" type="standard_car" route="W_S" depart="428" departLane="random" departSpeed="10" />
<vehicle id="S_N_430" type="standard_car" route="S_N" depart="430" departLane="random" departSpeed="10" />
<vehicle id="N_S_431" type="standard_car" route="N_S" depart="431" departLane="random" departSpeed="10" />
<vehicle id="E_W_432" type="standard_car" route="E_W" depart="432" departLane="random" departSpeed="10" />
<vehicle id="S_N_447" type="standard_car" route="S_N" depart="447" departLane="random" departSpeed="10" />
<vehicle id="N_W_456" type="standard_car" route="N_W" depart="456" departLane="random" departSpeed="10" />
<vehicle id="N_E_461" type="standard_car" route="N_E" depart="461" departLane="random" departSpeed="10" />
<vehicle id="E_W_464" type="standard_car" route="E_W" depart="464" departLane="random" departSpeed="10" />
<vehicle id="E_W_467" type="standard_car" route="E_W" depart="467" departLane="random" departSpeed="10" />
<vehicle id="N_S_467" type="standard_car" route="N_S" depart="467" departLane="random" departSpeed="10" />
<vehicle id="S_W_469" type="standard_car" route="S_W" depart="469" departLane="random" departSpeed="10" />
<vehicle id="W_E_470" type="standard_car" route="W_E" depart="470" departLane="random" departSpeed="10" />
<vehicle id="S_N_470" type="standard_car" route="S_N" depart="470" departLane="random" departSpeed="10" />
<vehicle id="E_S_473" type="standard_car" route="E_S" depart="473" departLane="random" departSpeed="10" />
<vehicle id="S_E_473" type="standard_car" route="S_E" depart="473" departLane="random" departSpeed="10" />
<vehicle id="W_E_474" type="standard_car" route="W_E" depart="474" departLane="random" departSpeed="10" />
<vehicle id="W_N_474" type="standard_car" route="W_N" depart="474" departLane="random" departSpeed="10" />
<vehicle id="E_W_477" type="standard_car" route="E_W" depart="477" departLane="random" departSpeed="10" />
<vehicle id="E_W_478" type="standard_car" route="E_W" depart="478" departLane="random" departSpeed="10" />
<vehicle id="N_E_478" type="standard_car" route="N_E" depart="478" departLane="random" departSpeed="10" />
<vehicle id="W_E_481" type="standard_car" route="W_E" depart="481" departLane="random" departSpeed="10" />
<vehicle id="N_E_482" type="standard_car" route="N_E" depart="482" departLane="random" departSpeed="10" />
<vehicle id="W_E_485" type="standard_car" route="W_E" depart="485" departLane="random" departSpeed="10" />
<vehicle id="E_S_491" type="standard_car" route="E_S" depart="491" departLane="random" departSpeed="10" />
<vehicle id="W_N_495" type="standard_car" route="W_N" depart="495" departLane="random" departSpeed="10" />
<vehicle id="S_E_495" type="standard_car" route="S_E" depart="495" departLane="random" departSpeed="10" />
<vehicle id="S_W_500" type="standard_car" route="S_W" depart="500" departLane="random" departSpeed="10" />
<vehicle id="S_N_501" type="standard_car" route="S_N" depart="501" departLane="random" departSpeed="10" />
<vehicle id="W_E_502" type="standard_car" route="W_E" depart="502" departLane="random" departSpeed="10" />
<vehicle id="W_E_503" type="standard_car" route="W_E" depart="503" departLane="random" departSpeed="10" />
<vehicle id="S_W_507" type="standard_car" route="S_W" depart="507" departLane="random" departSpeed="10" />
<vehicle id="E_W_510" type="standard_car" route="E_W" depart="510" departLane="random" departSpeed="10" />
<vehicle id="N_W_510" type="standard_car" route="N_W" depart="510" departLane="random" departSpeed="10" />
<vehicle id="E_W_512" type="standard_car" route="E_W" depart="512" departLane="random" departSpeed="10" />
<vehicle id="N_S_515" type="standard_car" route="N_S" depart="515" departLane="random" departSpeed="10" />
<vehicle id="S_E_522" type="standard_car" route="S_E" depart="522" departLane="random" departSpeed="10" />
<vehicle id="W_S_525" type="standard_car" route="W_S" depart="525" departLane="random" departSpeed="10" />
<vehicle id="E_S_528" type="standard_car" route="E_S" depart="528" departLane="random" departSpeed="10" />
<vehicle id="N_S_528" type="standard_car" route="N_S" depart="528" departLane="random" departSpeed="10" />
<vehicle id="W_E_528" type="standard_car" route="W_E" depart="528" departLane="random" departSpeed="10" />
<vehicle id="E_W_529" type="standard_car" route="E_W" depart="529" departLane="random" departSpeed="10" />
<vehicle id="S_N_536" type="standard_car" route="S_N" depart="536" departLane="random" departSpeed="10" />
<vehicle id="N_E_537" type="standard_car" route="N_E" depart="537" departLane="random" departSpeed="10" />
<vehicle id="W_E_537" type="standard_car" route="W_E" depart="537" departLane="random" departSpeed="10" />
<vehicle id="S_W_543" type="standard_car" route="S_W" depart="543" departLane="random" departSpeed="10" />
<vehicle id="E_S_544" type="standard_car" route="E_S" depart="544" departLane="random" departSpeed="10" />
<vehicle id="S_N_549" type="standard_car" route="S_N" depart="549" departLane="random" departSpeed="10" />
<vehicle id="N_S_556" type="standard_car" route="N_S" depart="556" departLane="random" departSpeed="10" />
<vehicle id="N_S_559" type="standard_car" route="N_S" depart="559" departLane="random" departSpeed="10" />
<vehicle id="E_W_560" type="standard_car" route="E_W" depart="560" departLane="random" departSpeed="10" />
<vehicle id="N_E_560" type="standard_car" route="N_E" depart="560" departLane="random" departSpeed="10" />
<vehicle id="S_N_560" type="standard_car" route="S_N" depart="560" departLane="random" departSpeed="10" />
<vehicle id="N_S_573" type="standard_car" route="N_S" depart="573" departLane="random" departSpeed="10" />
<vehicle id="E_S_574" type="standard_car" route="E_S" depart="574" departLane="random" departSpeed="10" />
<vehicle id="E_N_577" type="standard_car" route="E_N" depart="577" departLane="random" departSpeed="10" />
<vehicle id="W_N_579" type="standard_car" route="W_N" depart="579" departLane="random" departSpeed="10" />
<vehicle id="N_S_583" type="standard_car" route="N_S" depart="583" departLane="random" departSpeed="10" />
<vehicle id="W_S_588" type="standard_car" route="W_S" depart="588" departLane="random" departSpeed="10" />
<vehicle id="N_S_590" type="standard_car" route="N_S" depart="590" departLane="random" departSpeed="10" />
<vehicle id="W_E_592" type="standard_car" route="W_E" depart="592" departLane="random" departSpeed="10" />
<vehicle id="E_W_595" type="standard_car" route="E_W" depart="595" departLane="random" departSpeed="10" />
<vehicle id="S_E_607" type="standard_car" route="S_E" depart="607" departLane="random" departSpeed="10" />
<vehicle id="E_S_608" type="standard_car" route="E_S" depart="608" departLane="random" departSpeed="10" />
<vehicle id="N_E_610" type="standard_car" route="N_E" depart="610" departLane="random" departSpeed="10" />
<vehicle id="S_N_610" type="standard_car" route="S_N" depart="610" departLane="random" departSpeed="10" />
<vehicle id="N_W_613" type="standard_car" route="N_W" depart="613" departLane="random" departSpeed="10" />
<vehicle id="N_S_616" type="standard_car" route="N_S" depart="616" departLane="random" departSpeed="10" />
<vehicle id="E_W_618" type="standard_car" route="E_W" depart="618" departLane="random" departSpeed="10" />
<vehicle id="W_E_618" type="standard_car" route="W_E" depart="618" departLane="random" departSpeed="10" />
<vehicle id="N_S_621" type="standard_car" route="N_S" depart="621" departLane="random" departSpeed="10" />
<vehicle id="E_W_629" type="standard_car" route="E_W" depart="629" departLane="random" departSpeed="10" />
<vehicle id="S_N_629" type="standard_car" route="S_N" depart="629" departLane="random" departSpeed="10" />
<vehicle id="N_E_630" type="standard_car" route="N_E" depart="630" departLane="random" departSpeed="10" />
<vehicle id="N_S_631" type="standard_car" route="N_S" depart="631" departLane="random" departSpeed="10" />
<vehicle id="E_N_634" type="standard_car" route="E_N" depart="634" departLane="random" departSpeed="10" />
<vehicle id="E_S_636" type="standard_car" route="E_S" depart="636" departLane="random" departSpeed="10" />
<vehicle id="S_N_641" type="standard_car" route="S_N" depart="641" departLane="random" departSpeed="10" />
<vehicle id="W_E_643" type="standard_car" route="W_E" depart="643" departLane="random" departSpeed="10" />
<vehicle id="S_N_644" type="standard_car" route="S_N" depart="644" departLane="random" departSpeed="10" />
<vehicle id="W_E_648" type="standard_car" route="W_E" depart="648" departLane="random" departSpeed="10" />
<vehicle id="W_N_651" type="standard_car" route="W_N" depart="651" departLane="random" departSpeed="10" />
<vehicle id="E_W_652" type="standard_car" route="E_W" depart="652" departLane="random" departSpeed="10" />
<vehicle id="W_E_652" type="standard_car" route="W_E" depart="652" departLane="random" departSpeed="10" />
<vehicle id="S_E_652" type="standard_car" route="S_E" depart="652" departLane="random" departSpeed="10" />
<vehicle id="W_E_655" type="standard_car" route="W_E" depart="655" departLane="random" departSpeed="10" />
<vehicle id="S_N_665" type="standard_car" route="S_N" depart="665" departLane="random" departSpeed="10" />
<vehicle id="W_E_666" type="standard_car" route="W_E" depart="666" departLane="random" departSpeed="10" />
<vehicle id="S_N_669" type="standard_car" route="S_N" depart="669" departLane="random" departSpeed="10" />
<vehicle id="N_W_671" type="standard_car" route="N_W" depart="671" departLane="random" departSpeed="10" />
<vehicle id="W_S_672" type="standard_car" route="W_S" depart="672" departLane="random" departSpeed="10" />
<vehicle id="S_E_672" type="standard_car" route="S_E" depart="672" departLane="random" departSpeed="10" />
<vehicle id="S_N_678" type="standard_car" route="S_N" depart="678" departLane="random" departSpeed="10" />
<vehicle id="S_W_678" type="standard_car" route="S_W" depart="678" departLane="random" departSpeed="10" />
<vehicle id="E_W_681" type="standard_car" route="E_W" depart="681" departLane="random" departSpeed="10" />
<vehicle id="E_W_682" type="standard_car" route="E_W" depart="682" departLane="random" departSpeed="10" />
<vehicle id="N_W_683" type="standard_car" route="N_W" depart="683" departLane="random" departSpeed="10" />
<vehicle id="N_S_685" type="standard_car" route="N_S" depart="685" departLane="random" departSpeed="10" />
<vehicle id="S_N_685" type="standard_car" route="S_N" depart="685" departLane="random" departSpeed="10" />
<vehicle id="E_N_688" type="standard_car" route="E_N" depart="688" departLane="random" departSpeed="10" />
<vehicle id="E_W_688" type="standard_car" route="E_W" depart="688" departLane="random" departSpeed="10" />
<vehicle id="S_N_700" type="standard_car" route="S_N" depart="700" departLane="random" departSpeed="10" />
<vehicle id="N_S_703" type="standard_car" route="N_S" depart="703" departLane="random" departSpeed="10" />
<vehicle id="N_S_704" type="standard_car" route="N_S" depart="704" departLane="random" departSpeed="10" />
<vehicle id="W_N_710" type="standard_car" route="W_N" depart="710" departLane="random" departSpeed="10" />
<vehicle id="E_W_715" type="standard_car" route="E_W" depart="715" departLane="random" departSpeed="10" />
<vehicle id="S_N_716" type="standard_car" route="S_N" depart="716" departLane="random" departSpeed="10" />
<vehicle id="N_S_720" type="standard_car" route="N_S" depart="720" departLane="random" departSpeed="10" />
<vehicle id="S_N_720" type="standard_car" route="S_N" depart="720" departLane="random" departSpeed="10" />
<vehicle id="E_W_721" type="standard_car" route="E_W" depart="721" departLane="random" departSpeed="10" />
<vehicle id="N_W_724" type="standard_car" route="N_W" depart="724" departLane="random" departSpeed="10" />
<vehicle id="N_S_734" type="standard_car" route="N_S" depart="734" departLane="random" departSpeed="10" />
<vehicle id="E_W_737" type="standard_car" route="E_W" depart="737" departLane="random" departSpeed="10" />
<vehicle id="S_N_741" type="standard_car" route="S_N" depart="741" departLane="random" departSpeed="10" />
<vehicle id="W_E_742" type="standard_car" route="W_E" depart="742" departLane="random" departSpeed="10" />
<vehicle id="S_E_744" type="standard_car" route="S_E" depart="744" departLane="random" departSpeed="10" />
<vehicle id="W_E_746" type="standard_car" route="W_E" depart="746" departLane="random" departSpeed="10" />
<vehicle id="N_S_749" type="standard_car" route="N_S" depart="749" departLane="random" departSpeed="10" />
<vehicle id="W_E_753" type="standard_car" route="W_E" depart="753" departLane="random" departSpeed="10" />
<vehicle id="N_W_754" type="standard_car" route="N_W" depart="754" departLane="random" departSpeed="10" />
<vehicle id="S_E_755" type="standard_car" route="S_E" depart="755" departLane="random" departSpeed="10" />
<vehicle id="S_N_755" type="standard_car" route="S_N" depart="755" departLane="random" departSpeed="10" />
<vehicle id="N_E_757" type="standard_car" route="N_E" depart="757" departLane="random" departSpeed="10" />
<vehicle id="N_S_760" type="standard_car" route="N_S" depart="760" departLane="random" departSpeed="10" />
<vehicle id="S_N_763" type="standard_car" route="S_N" depart="763" departLane="random" departSpeed="10" />
<vehicle id="S_N_770" type="standard_car" route="S_N" depart="770" departLane="random" departSpeed="10" />
<vehicle id="S_N_773" type="standard_car" route="S_N" depart="773" departLane="random" departSpeed="10" />
<vehicle id="W_E_774" type="standard_car" route="W_E" depart="774" departLane="random" departSpeed="10" />
<vehicle id="S_E_776" type="standard_car" route="S_E" depart="776" departLane="random" departSpeed="10" />
<vehicle id="S_N_776" type="standard_car" route="S_N" depart="776" departLane="random" departSpeed="10" />
<vehicle id="E_W_777" type="standard_car" route="E_W" depart="777" departLane="random" departSpeed="10" />
<vehicle id="E_W_783" type="standard_car" route="E_W" depart="783" departLane="random" departSpeed="10" />