<routes> 
<vType accel="1.0" decel="4.5" id="standard_car" length="5.0" minGap="2.5" maxSpeed="25" sigma="0.5" />
<route id="E_N" edges="1i 2o"/>
<route id="E_W" edges="1i 3o"/>
<route id="E_S" edges="1i 4o"/>
<route id="N_W" edges="2i 3o"/>
<route id="N_S" edges="2i 4o"/>
<route id="N_E" edges="2i 1o"/>
<route id="W_S" edges="3i 4o"/>
<route id="W_E" edges="3i 1o"/>
<route id="W_N" edges="3i 2o"/>
<route id="S_E" edges="4i 1o"/>
<route id="S_N" edges="4i 2o"/>
<route id="S_W" edges="4i 3o"/>
<vehicle id="W_E_0" type="standard_car" route="W_E" depart="0" departLane="random" departSpeed="10" />
<vehicle id="N_S_7" type="standard_car" route="N_S" depart="7" departLane="random" departSpeed="10" />
<vehicle id="S_N_8" type="standard_car" route="S_N" depart="8" departLane="random" departSpeed="10" />
<vehicle id="W_E_13" type="standard_car" route="W_E" depart="13" departLane="random" departSpeed="10" />
<vehicle id="S_N_13" type="standard_car" route="S_N" depart="13" departLane="random" departSpeed="10" />
<vehicle id="S_E_16" type="standard_car" route="S_E" depart="16" departLane="random" departSpeed="10" />
<vehicle id="N_W_20" type="standard_car" route="N_W" depart="20" departLane="random" departSpeed="10" />
<vehicle id="N_W_21" type="standard_car" route="N_W" depart="21" departLane="random" departSpeed="10" />
<vehicle id="W_E_26" type="standard_car" route="W_E" depart="26" departLane="random" departSpeed="10" />
<vehicle id="N_S_35" type="standard_car" route="N_S" depart="35" departLane="random" departSpeed="10" />
<vehicle id="W_E_36" type="standard_car" route="W_E" depart="36" departLane="random" departSpeed="10" />
<vehicle id="S_N_39" type="standard_car" route="S_N" depart="39" departLane="random" departSpeed="10" />
<vehicle id="N_S_44" type="standard_car" route="N_S" depart="44" departLane="random" departSpeed="10" />
<vehicle id="S_W_44" type="standard_car" route="S_W" depart="44" departLane="random" departSpeed="10" />
<vehicle id="N_W_51" type="standard_car" route="N_W" depart="51" departLane="random" departSpeed="10" />
<vehicle id="S_E_52" type="standard_car" route="S_E" depart="52" departLane="random" departSpeed="10" />
<vehicle id="N_S_53" type="standard_car" route="N_S" depart="53" departLane="random" departSpeed="10" />
<vehicle id="S_W_53" type="standard_car" route="S_W" depart="53" departLane="random" departSpeed="10" />
<vehicle id="W_S_57" type="standard_car" route="W_S" depart="57" departLane="random" departSpeed="10" />
<vehicle id="W_N_64" type="standard_car" route="W_N" depart="64" departLane="random" departSpeed="10" />
<vehicle id="W_S_66" type="standard_car" route="W_S" depart="66" departLane="random" departSpeed="10" />
<vehicle id="W_E_70" type="standard_car" route="W_E" depart="70" departLane="random" departSpeed="10" />
<vehicle id="E_W_75" type="standard_car" route="E_W" depart="75" departLane="random" departSpeed="10" />
<vehicle id="S_N_78" type="standard_car" route="S_N" depart="78" departLane="random" departSpeed="10" />
<vehicle id="S_N_84" type="standard_car" route="S_N" depart="84" departLane="random" departSpeed="10" />
<vehicle id="E_W_88" type="standard_car" route="E_W" depart="88" departLane="random" departSpeed="10" />
<vehicle id="E_N_90" type="standard_car" route="E_N" depart="90" departLane="random" departSpeed="10" />
<vehicle id="N_S_93" type="standard_car" route="N_S" depart="93" departLane="random" departSpeed="10" />
<vehicle id="E_W_94" type="standard_car" route="E_W" depart="94" departLane="random" departSpeed="10" />
<vehicle id="N_S_94" type="standard_car" route="N_S" depart="94" departLane="random" departSpeed="10" />
<vehicle id="E_W_101" type="standard_car" route="E_W" depart="101" departLane="random" departSpeed="10" />
<vehicle id="E_W_104" type="standard_car" route="E_W" depart="104" departLane="random" departSpeed="10" />
<vehicle id="N_W_104" type="standard_car" route="N_W" depart="104" departLane="random" departSpeed="10" />
<vehicle id="E_W_108" type="standard_car" route="E_W" depart="108" departLane="random" departSpeed="10" />
<vehicle id="E_W_111" type="standard_car" route="E_W" depart="111" departLane="random" departSpeed="10" />
<vehicle id="E_W_124" type="standard_car" route="E_W" depart="124" departLane="random" departSpeed="10" />
<vehicle id="E_S_128" type="standard_car" route="E_S" depart="128" departLane="random" departSpeed="10" />
<vehicle id="N_S_128" type="standard_car" route="N_S" depart="128" departLane="random" departSpeed="10" />
<vehicle id="W_E_132" type="standard_car" route="W_E" depart="132" departLane="random" departSpeed="10" />
<vehicle id="S_N_139" type="standard_car" route="S_N" depart="139" departLane="random" departSpeed="10" />
<vehicle id="N_S_146" type="standard_car" route="N_S" depart="146" departLane="random" departSpeed="10" />
<vehicle id="W_S_149" type="standard_car" route="W_S" depart="149" departLane="random" departSpeed="10" />
<vehicle id="N_S_150" type="standard_car" route="N_S" depart="150" departLane="random" departSpeed="10" />
<vehicle id="N_S_151" type="standard_car" route="N_S" depart="151" departLane="random" departSpeed="10" />
<vehicle id="E_S_153" type="standard_car" route="E_S" depart="153" departLane="random" departSpeed="10" />
<vehicle id="S_N_155" type="standard_car" route="S_N" depart="155" departLane="random" departSpeed="10" />
<vehicle id="E_N_159" type="standard_car" route="E_N" depart="159" departLane="random" departSpeed="10" />
<vehicle id="N_W_159" type="standard_car" route="N_W" depart="159" departLane="random" departSpeed="10" />
<vehicle id="E_W_161" type="standard_car" route="E_W" depart="161" departLane="random" departSpeed="10" />
<vehicle id="S_E_165" type="standard_car" route="S_E" depart="165" departLane="random" departSpeed="10" />
<vehicle id="S_N_170" type="standard_car" route="S_N" depart="170" departLane="random" departSpeed="10" />
<vehicle id="S_W_172" type="standard_car" route="S_W" depart="172" departLane="random" departSpeed="10" />
<vehicle id="W_E_173" type="standard_car" route="W_E" depart="173" departLane="random" departSpeed="10" />
<vehicle id="W_S_176" type="standard_car" route="W_S" depart="176" departLane="random" departSpeed="10" />
<vehicle id="E_W_192" type="standard_car" route="E_W" depart="192" departLane="random" departSpeed="10" />
<vehicle id="W_N_197" type="standard_car" route="W_N" depart="197" departLane="random" departSpeed="10" />
<vehicle id="E_N_201" type="standard_car" route="E_N" depart="201" departLane="random" departSpeed="10" />
<vehicle id="S_N_206" type="standard_car" route="S_N" depart="206" departLane="random" departSpeed="10" />
<vehicle id="E_W_208" type="standard_car" route="E_W" depart="208" departLane="random" departSpeed="10" />
<vehicle id="E_W_211" type="standard_car" route="E_W" depart="211" departLane="random" departSpeed="10" />
<vehicle id="N_S_213" type="standard_car" route="N_S" depart="213" departLane="random" departSpeed="10" />
<vehicle id="S_E_216" type="standard_car" route="S_E" depart="216" departLane="random" departSpeed="10" />
<vehicle id="W_E_227" type="standard_car" route="W_E" depart="227" departLane="random" departSpeed="10" />
<vehicle id="S_W_230" type="standard_car" route="S_W" depart="230" departLane="random" departSpeed="10" />
<vehicle id="E_W_235" type="standard_car" route="E_W" depart="235" departLane="random" departSpeed="10" />
<vehicle id="S_N_244" type="standard_car" route="S_N" depart="244" departLane="random" departSpeed="10" />
<vehicle id="N_S_249" type="standard_car" route="N_S" depart="249" departLane="random" departSpeed="10" />
<vehicle id="N_S_255" type="standard_car" route="N_S" depart="255" departLane="random" departSpeed="10" />
<vehicle id="N_S_256" type="standard_car" route="N_S" depart="256" departLane="random" departSpeed="10" />
<vehicle id="N_S_259" type="standard_car" route="N_S" depart="259" departLane="random" departSpeed="10" />
<vehicle id="S_N_266" type="standard_car" route="S_N" depart="266" departLane="random" departSpeed="10" />
<vehicle id="N_E_273" type="standard_car" route="N_E" depart="273" departLane="random" departSpeed="10" />
<vehicle id="W_E_273" type="standard_car" route="W_E" depart="273" departLane="random" departSpeed="10" />
<vehicle id="S_N_279" type="standard_car" route="S_N" depart="279" departLane="random" departSpeed="10" />
<vehicle id="S_W_285" type="standard_car" route="S_W" depart="285" departLane="random" departSpeed="10" />
<vehicle id="N_E_287" type="standard_car" route="N_E" depart="287" departLane="random" departSpeed="10" />
<vehicle id="W_S_297" type="standard_car" route="W_S" depart="297" departLane="random" departSpeed="10" />
<vehicle id="E_W_299" type="standard_car" route="E_W" depart="299" departLane="random" departSpeed="10" />
<vehicle id="W_E_300" type="standard_car" route="W_E" depart="300" departLane="random" departSpeed="10" />
<vehicle id="N_S_302" type="standard_car" route="N_S" depart="302" departLane="random" departSpeed="10" />
<vehicle id="N_E_304" type="standard_car" route="N_E" depart="304" departLane="random" departSpeed="10" />
<vehicle id="E_W_305" type="standard_car" route="E_W" depart="305" departLane="random" departSpeed="10" />
<vehicle id="N_W_310" type="standard_car" route="N_W" depart="310" departLane="random" departSpeed="10" />
<vehicle id="N_S_311" type="standard_car" route="N_S" depart="311" departLane="random" departSpeed="10" />
<vehicle id="S_E_314" type="standard_car" route="S_E" depart="314" departLane="random" departSpeed="10" />
<vehicle id="S_N_315" type="standard_car" route="S_N" depart="315" departLane="random" departSpeed="10" />
<vehicle id="E_S_318" type="standard_car" route="E_S" depart="318" departLane="random" departSpeed="10" />
<vehicle id="S_W_324" type="standard_car" route="S_W" depart="324" departLane="random" departSpeed="10" />
<vehicle id="S_E_328" type="standard_car" route="S_E" depart="328" departLane="random" departSpeed="10" />
<vehicle id="E_W_329" type="standard_car" route="E_W" depart="329" departLane="random" departSpeed="10" />
<vehicle id="W_E_329" type="standard_car" route="W_E" depart="329" departLane="random" departSpeed="10" />
<vehicle id="S_N_331" type="standard_car" route="S_N" depart="331" departLane="random" departSpeed="10" />
<vehicle id="N_S_332" type="standard_car" route="N_S" depart="332" departLane="random" departSpeed="10" />
<vehicle id="S_E_333" type="standard_car" route="S_E" depart="333" departLane="random" departSpeed="10" />
<vehicle id="N_S_337" type="standard_car" route="N_S" depart="337" departLane="random" departSpeed="10" />
<vehicle id="E_S_339" type="standard_car" route="E_S" depart="339" departLane="random" departSpeed="10" />
<vehicle id="S_N_339" type="standard_car" route="S_N" depart="339" departLane="random" departSpeed="10" />
<vehicle id="S_N_340" type="standard_car" route="S_N" depart="340" departLane="random" departSpeed="10" />
<vehicle id="E_S_341" type="standard_car" route="E_S" depart="341" departLane="random" departSpeed="10" />
<vehicle id="E_W_350" type="standard_car" route="E_W" depart="350" departLane="random" departSpeed="10" />
<vehicle id="N_S_356" type="standard_car" route="N_S" depart="356" departLane="random" departSpeed="10" />
<vehicle id="N_S_366" type="standard_car" route="N_S" depart="366" departLane="random" departSpeed="10" />
<vehicle id="N_S_374" type="standard_car" route="N_S" depart="374" departLane="random" departSpeed="10" />
<vehicle id="W_S_376" type="standard_car" route="W_S" depart="376" departLane="random" departSpeed="10" />
<vehicle id="E_W_378" type="standard_car" route="E_W" depart="378" departLane="random" departSpeed="10" />
<vehicle id="S_N_379" type="standard_car" route="S_N" depart="379" departLane="random" departSpeed="10" />
<vehicle id="E_N_381" type="standard_car" route="E_N" depart="381" departLane="random" departSpeed="10" />
<vehicle id="N_E_387" type="standard_car" route="N_E" depart="387" departLane="random" departSpeed="10" />
<vehicle id="S_N_402" type="standard_car" route="S_N" depart="402" departLane="random" departSpeed="10" />
<vehicle id="E_W_405" type="standard_car" route="E_W" depart="405" departLane="random" departSpeed="10" />
<vehicle id="S_N_410" type="standard_car" route="S_N" depart="410" departLane="random" departSpeed="10" />
<vehicle id="S_N_417" type="standard_car" route="S_N" depart="417" departLane="random" departSpeed="10" />
<vehicle id="E_W_423" type="standard_car" route="E_W" depart="423" departLane="random" departSpeed="10" />
<vehicle id="E_N_427" type="standard_car" route="E_N" depart="427" departLane="random" departSpeed="10" />
<vehicle id="N_S_432" type="standard_car" route="N_S" depart="432" departLane="random" departSpeed="10" />
<vehicle id="S_E_432" type="standard_car" route="S_E" depart="432" departLane="random" departSpeed="10" />
<vehicle id="E_W_433" type="standard_car" route="E_W" depart="433" departLane="random" departSpeed="10" />
<vehicle id="N_S_434" type="standard_car" route="N_S" depart="434" departLane="random" departSpeed="10" />
<vehicle id="W_E_437" type="standard_car" route="W_E" depart="437" departLane="random" departSpeed="10" />
<vehicle id="N_E_440" type="standard_car" route="N_E" depart="440" departLane="random" departSpeed="10" />
<vehicle id="W_E_443" type="standard_car" route="W_E" depart="443" departLane="random" departSpeed="10" />
<vehicle id="E_N_448" type="standard_car" route="E_N" depart="448" departLane="random" departSpeed="10" />
<vehicle id="S_N_448" type="standard_car" route="S_N" depart="448" departLane="random" departSpeed="10" />
<vehicle id="W_N_451" type="standard_car" route="W_N" depart="451" departLane="random" departSpeed="10" />
<vehicle id="N_S_455" type="standard_car" route="N_S" depart="455" departLane="random" departSpeed="10" />
<vehicle id="N_E_456" type="standard_car" route="N_E" depart="456" departLane="random" departSpeed="10" />
<vehicle id="E_W_457" type="standard_car" route="E_W" depart="457" departLane="random" departSpeed="10" />
<vehicle id="S_N_460" type="standard_car" route="S_N" depart="460" departLane="random" departSpeed="10" />
<vehicle id="E_W_465" type="standard_car" route="E_W" depart="465" departLane="random" departSpeed="10" />
<vehicle id="N_S_465" type="standard_car" route="N_S" depart="465" departLane="random" departSpeed="10" />
<vehicle id="N_S_467" type="standard_car" route="N_S" depart="467" departLane="random" departSpeed="10" />
<vehicle id="N_S_469" type="standard_car" route="N_S" depart="469" departLane="random" departSpeed="10" />
<vehicle id="W_S_470" type="standard_car" route="W_S" depart="470" departLane="random" departSpeed="10" />
<vehicle id="E_S_480" type="standard_car" route="E_S" depart="480" departLane="random" departSpeed="10" />
<vehicle id="W_E_490" type="standard_car" route="W_E" depart="490" departLane="random" departSpeed="10" />
<vehicle id="S_N_490" type="standard_car" route="S_N" depart="490" departLane="random" departSpeed="10" />
<vehicle id="E_S_491" type="standard_car" route="E_S" depart="491" departLane="random" departSpeed="10" />
<vehicle id="E_W_496" type="standard_car" route="E_W" depart="496" departLane="random" departSpeed="10" />
<vehicle id="N_S_498" type="standard_car" route="N_S" depart="498" departLane="random" departSpeed="10" />
<vehicle id="N_S_503" type="standard_car" route="N_S" depart="503" departLane="random" departSpeed="10" />
<vehicle id="N_S_505" type="standard_car" route="N_S" depart="505" departLane="random" departSpeed="10" />
<vehicle id="E_N_509" type="standard_car" route="E_N" depart="509" departLane="random" departSpeed="10" />
<vehicle id="S_W_510" type="standard_car" route="S_W" depart="510" departLane="random" departSpeed="10" />
<vehicle id="W_S_512" type="standard_car" route="W_S" depart="512" departLane="random" departSpeed="10" />
<vehicle id="E_W_514" type="standard_car" route="E_W" depart="514" departLane="random" departSpeed="10" />
<vehicle id="N_W_514" type="standard_car" route="N_W" depart="514" departLane="random" departSpeed="10" />
<vehicle id="S_N_515" type="standard_car" route="S_N" depart="515" departLane="random" departSpeed="10" />
<vehicle id="W_S_518" type="standard_car" route="W_S" depart="518" departLane="random" departSpeed="10" />
<vehicle id="N_W_522" type="standard_car" route="N_W" depart="522" departLane="random" departSpeed="10" />
<vehicle id="N_S_522" type="standard_car" route="N_S" depart="522" departLane="random" departSpeed="10" />
<vehicle id="W_E_524" type="standard_car" route="W_E" depart="524" departLane="random" departSpeed="10" />
<vehicle id="N_S_532" type="standard_car" route="N_S" depart="532" departLane="random" departSpeed="10" />
<vehicle id="S_N_533" type="standard_car" route="S_N" depart="533" departLane="random" departSpeed="10" />
<vehicle id="E_N_534" type="standard_car" route="E_N" depart="534" departLane="random" departSpeed="10" />
<vehicle id="E_W_538" type="standard_car" route="E_W" depart="538" departLane="random" departSpeed="10" />
<vehicle id="S_E_539" type="standard_car" route="S_E" depart="539" departLane="random" departSpeed="10" />
<vehicle id="N_E_543" type="standard_car" route="N_E" depart="543" departLane="random" departSpeed="10" />
<vehicle id="W_S_548" type="standard_car" route="W_S" depart="548" departLane="random" departSpeed="10" />
<vehicle id="E_S_549" type="standard_car" route="E_S" depart="549" departLane="random" departSpeed="10" />
<vehicle id="W_E_549" type="standard_car" route="W_E" depart="549" departLane="random" departSpeed="10" />
<vehicle id="S_N_550" type="standard_car" route="S_N" depart="550" departLane="random" departSpeed="10" />
<vehicle id="W_E_555" type="standard_car" route="W_E" depart="555" departLane="random" departSpeed="10" />
<vehicle id="S_N_559" type="standard_car" route="S_N" depart="559" departLane="random" departSpeed="10" />
<vehicle id="N_W_562" type="standard_car" route="N_W" depart="562" departLane="random" departSpeed="10" />
<vehicle id="E_N_565" type="standard_car" route="E_N" depart="565" departLane="random" departSpeed="10" />
<vehicle id="W_E_568" type="standard_car" route="W_E" depart="568" departLane="random" departSpeed="10" />
<vehicle id="E_N_580" type="standard_car" route="E_N" depart="580" departLane="random" departSpeed="10" />
<vehicle id="N_W_582" type="standard_car" route="N_W" depart="582" departLane="random" departSpeed="10" />
<vehicle id="S_E_582" type="standard_car" route="S_E" depart="582" departLane="random" departSpeed="10" />
<vehicle id="E_W_584" type="standard_car" route="E_W" depart="584" departLane="random" departSpeed="10" />
<vehicle id="S_E_586" type="standard_car" route="S_E" depart="586" departLane="random" departSpeed="10" />
<vehicle id="E_W_591" type="standard_car" route="E_W" depart="591" departLane="random" departSpeed="10" />
<vehicle id="N_S_594" type="standard_car" route="N_S" depart="594" departLane="random" departSpeed="10" />
<vehicle id="W_N_594" type="standard_car" route="W_N" depart="594" departLane="random" departSpeed="10" />
<vehicle id="N_E_606" type="standard_car" route="N_E" depart="606" departLane="random" departSpeed="10" />
<vehicle id="E_W_607" type="standard_car" route="E_W" depart="607" departLane="random" departSpeed="10" />
<vehicle id="S_N_607" type="standard_car" route="S_N" depart="607" departLane="random" departSpeed="10" />
<vehicle id="W_S_609" type="standard_car" route="W_S" depart="609" departLane="random" departSpeed="10" />
<vehicle id="S_N_610" type="standard_car" route="S_N" depart="610" departLane="random" departSpeed="10" />
<vehicle id="E_W_611" type="standard_car" route="E_W" depart="611" departLane="random" departSpeed="10" />
<vehicle id="E_W_617" type="standard_car" route="E_W" depart="617" departLane="random" departSpeed="10" />
<vehicle id="N_W_617" type="standard_car" route="N_W" depart="617" departLane="random" departSpeed="10" />
<vehicle id="N_W_632" type="standard_car" route="N_W" depart="632" departLane="random" departSpeed="10" />
<vehicle id="W_E_633" type="standard_car" route="W_E" depart="633" departLane="random" departSpeed="10" />
<vehicle id="W_E_634" type="standard_car" route="W_E" depart="634" departLane="random" departSpeed="10" />
<vehicle id="N_S_640" type="standard_car" route="N_S" depart="640" departLane="random" departSpeed="10" />
<vehicle id="E_W_650" type="standard_car" route="E_W" depart="650" departLane="random" departSpeed="10" />
<vehicle id="W_E_653" type="standard_car" route="W_E" depart="653" departLane="random" departSpeed="10" />
<vehicle id="S_N_653" type="standard_car" route="S_N" depart="653" departLane="random" departSpeed="10" />
<vehicle id="E_W_655" type="standard_car" route="E_W" depart="655" departLane="random" departSpeed="10" />
<vehicle id="N_S_655" type="standard_car" route="N_S" depart="655" departLane="random" departSpeed="10" />
<vehicle id="N_E_655" type="standard_car" route="N_E" depart="655" departLane="random" departSpeed="10" />
<vehicle id="W_E_660" type="standard_car" route="W_E" depart="660" departLane="random" departSpeed="10" />
<vehicle id="S_E_673" type="standard_car" route="S_E" depart="673" departLane="random" departSpeed="10" />
<vehicle id="N_W_674" type="standard_car" route="N_W" depart="674" departLane="random" departSpeed="10" />
<vehicle id="S_N_675" type="standard_car" route="S_N" depart="675" departLane="random" departSpeed="10" />
<vehicle id="E_W_676" type="standard_car" route="E_W" depart="676" departLane="random" departSpeed="10" />
<vehicle id="W_S_679" type="standard_car" route="W_S" depart="679" departLane="random" departSpeed="10" />
<vehicle id="N_S_683" type="standard_car" route="N_S" depart="683" departLane="random" departSpeed="10" />
<vehicle id="E_N_685" type="standard_car" route="E_N" depart="685" departLane="random" departSpeed="10" />
<vehicle id="E_W_685" type="standard_car" route="E_W" depart="685" departLane="random" departSpeed="10" />
<vehicle id="N_S_687" type="standard_car" route="N_S" depart="687" departLane="random" departSpeed="10" />
<vehicle id="N_W_688" type="standard_car" route="N_W" depart="688" departLane="random" departSpeed="10" />
<vehicle id="W_N_688" type="standard_car" route="W_N" depart="688" departLane="random" departSpeed="10" />
<vehicle id="W_E_689" type="standard_car" route="W_E" depart="689" departLane="random" departSpeed="10" />
<vehicle id="S_N_693" type="standard_car" route="S_N" depart="693" departLane="random" departSpeed="10" />
<vehicle id="E_W_699" type="standard_car" route="E_W" depart="699" departLane="random" departSpeed="10" />
<vehicle id="E_W_700" type="standard_car" route="E_W" depart="700" departLane="random" departSpeed="10" />
<vehicle id="W_E_700" type="standard_car" route="W_E" depart="700" departLane="random" departSpeed="10" />
<vehicle id="S_W_701" type="standard_car" route="S_W" depart="701" departLane="random" departSpeed="10" />
<vehicle id="E_W_702" type="standard_car" route="E_W" depart="702" departLane="random" departSpeed="10" />
<vehicle id="S_E_705" type="standard_car" route="S_E" depart="705" departLane="random" departSpeed="10" />
<vehicle id="W_E_714" type="standard_car" route="W_E" depart="714" departLane="random" departSpeed="10" />
<vehicle id="S_N_714" type="standard_car" route="S_N" depart="714" departLane="random" departSpeed="10" />
<vehicle id="S_N_715" type="standard_car" route="S_N" depart="715" departLane="random" departSpeed="10" />
<vehicle id="W_E_727" type="standard_car" route="W_E" depart="727" departLane="random" departSpeed="10" />
<vehicle id="S_W_730" type="standard_car" route="S_W" depart="730" departLane="random" departSpeed="10" />
<vehicle id="E_N_738" type="standard_car" route="E_N" depart="738" departLane="random" departSpeed="10" />
<vehicle id="E_W_738" type="standard_car" route="E_W" depart="738" departLane="random" departSpeed="10" />
<vehicle id="E_W_741" type="standard_car" route="E_W" depart="741" departLane="random" departSpeed="10" />
<vehicle id="N_S_743" type="standard_car" route="N_S" depart="743" departLane="random" departSpeed="10" />
<vehicle id="N_E_743" type="standard_car" route="N_E" depart="743" departLane="random" departSpeed="10" />
<vehicle id="W_E_746" type="standard_car" route="W_E" depart="746" departLane="random" departSpeed="10" />
<vehicle id="W_E_754" type="standard_car" route="W_E" depart="754" departLane="random" departSpeed="10" />
<vehicle id="E_W_758" type="standard_car" route="E_W" depart="758" departLane="random" departSpeed="10" />
<vehicle id="E_W_759" type="standard_car" route="E_W" depart="759" departLane="random" departSpeed="10" />
<vehicle id="N_S_759" type="standard_car" route="N_S" depart="759" departLane="random" departSpeed="10" />
<vehicle id="S_E_763" type="standard_car" route="S_E" depart="763" departLane="random" departSpeed="10" />
<vehicle id="E_W_765" type="standard_car" route="E_W" depart="765" departLane="random" departSpeed="10" />
<vehicle id="E_S_765" type="standard_car" route="E_S" depart="765" departLane="random" departSpeed="10" />
<vehicle id="N_E_767" type="standard_car" route="N_E" depart="767" departLane="random" departSpeed="10" />
<vehicle id="N_W_773" type="standard_car" route="N_W" depart="773" departLane="random" departSpeed="10" />
<vehicle id="N_E_781" type="standard_car" route="N_E" depart="781" departLane="random" departSpeed="10" />
<vehicle id="S_N_782" type="standard_car" route="S_N" depart="782" departLane="random" departSpeed="10" />
<vehicle id="E_W_783" type="standard_car" route="E_W" depart="783" departLane="random" departSpeed="10" />
<vehicle id="E_W_792" type="standard_car" route="E_W" depart="792" departLane="random" departSpeed="10" />
<vehicle id="S_N_799" type="standard_car" route="S_N" depart="799" departLane="random" departSpeed="10" />
<vehicle id="N_W_807" type="standard_car" route="N_W" depart="807" departLane="random" departSpeed="10" />
<vehicle id="W_E_807" type="standard_car" route="W_E" depart="807" departLane="random" departSpeed="10" />
<vehicle id="N_W_808" type="standard_car" route="N_W" depart="808" departLane="random" departSpeed="10" />
<vehicle id="E_W_812" type="standard_car" route="E_W" depart="812" departLane="random" departSpeed="10" />
<vehicle id="S_E_814" type="standard_car" route="S_E" depart="814" departLane="random" departSpeed="10" />
<vehicle id="W_E_816" type="standard_car" route="W_E" depart="816" departLane="random" departSpeed="10" />
<vehicle id="N_S_824" type="standard_car" route="N_S" depart="824" departLane="random" departSpeed="10" />
<vehicle id="W_S_830" type="standard_car" route="W_S" depart="830" departLane="random" departSpeed="10" />
<vehicle id="N_W_836" type="standard_car" route="N_W" depart="836" departLane="random" departSpeed="10" />
<vehicle id="N_S_837" type="standard_car" route="N_S" depart="837" departLane="random" departSpeed="10" />
<vehicle id="S_N_838" type="standard_car" route="S_N" depart="838" departLane="random" departSpeed="10" />
<vehicle id="S_E_840" type="standard_car" route="S_E" depart="840" departLane="random" departSpeed="10" />
<vehicle id="N_S_845" type="standard_car" route="N_S" depart="845" departLane="random" departSpeed="10" />
<vehicle id="W_E_845" type="standard_car" route="W_E" depart="845" departLane="random" departSpeed="10" />
<vehicle id="N_E_854" type="standard_car" route="N_E" depart="854" departLane="random" departSpeed="10" />
<vehicle id="W_S_854" type="standard_car" route="W_S" depart="854" departLane="random" departSpeed="10" />
<vehicle id="S_N_854" type="standard_car" route="S_N" depart="854" departLane="random" departSpeed="10" />
<vehicle id="N_S_855" type="standard_car" route="N_S" depart="855" departLane="random" departSpeed="10" />
<vehicle id="W_E_855" type="standard_car" route="W_E" depart="855" departLane="random" departSpeed="10" />
<vehicle id="E_W_858" type="standard_car" route="E_W" depart="858" departLane="random" departSpeed="10" />
<vehicle id="N_S_860" type="standard_car" route="N_S" depart="860" departLane="random" departSpeed="10" />
<vehicle id="N_S_867" type="standard_car" route="N_S" depart="867" departLane="random" departSpeed="10" />
<vehicle id="S_N_870" type="standard_car" route="S_N" depart="870" departLane="random" departSpeed="10" />
<vehicle id="E_S_872" type="standard_car" route="E_S" depart="872" departLane="random" departSpeed="10" />
<vehicle id="N_S_877" type="standard_car" route="N_S" depart="877" departLane="random" departSpeed="10" />
<vehicle id="E_W_883" type="standard_car" route="E_W" depart="883" departLane="random" departSpeed="10" />
<vehicle id="E_N_884" type="standard_car" route="E_N" depart="884" departLane="random" departSpeed="10" />
<vehicle id="W_S_891" type="standard_car" route="W_S" depart="891" departLane="random" departSpeed="10" />
<vehicle id="E_W_892" type="standard_car" route="E_W" depart="892" departLane="random" departSpeed="10" />
<vehicle id="S_N_895" type="standard_car" route="S_N" depart="895" departLane="random" departSpeed="10" />
<vehicle id="W_N_896" type="standard_car" route="W_N" depart="896" departLane="random" departSpeed="10" />
<vehicle id="S_N_904" type="standard_car" route="S_N" depart="904" departLane="random" departSpeed="10" />
<vehicle id="E_W_908" type="standard_car" route="E_W" depart="908" departLane="random" departSpeed="10" />
<vehicle id="N_S_910" type="standard_car" route="N_S" depart="910" departLane="random" departSpeed="10" />
<vehicle id="W_E_910" type="standard_car" route="W_E" depart="910" departLane="random" departSpeed="10" />
<vehicle id="E_S_913" type="standard_car" route="E_S" depart="913" departLane="random" departSpeed="10" />