<routes> 
<vType accel="1.0" decel="4.5" id="standard_car" length="5.0" minGap="2.5" maxSpeed="25" sigma="0.5" />
<route id="E_N" edges="1i 2o"/>
<route id="E_W" edges="1i 3o"/>
<route id="E_S" edges="1i 4o"/>
<route id="N_W" edges="2i 3o"/>
<route id="N_S" edges="2i 4o"/>
<route id="N_E" edges="2i 1o"/>
<route id="W_S" edges="3i 4o"/>
<route id="W_E" edges="3i 1o"/>
<route id="W_N" edges="3i 2o"/>
<route id="S_E" edges="4i 1o"/>
<route id="S_N" edges="4i 2o"/>
<route id="S_W" edges="4i 3o"/>
<vehicle id="E_N_0" type="standard_car" route="E_N" depart="0" departLane="random" departSpeed="10" />
<vehicle id="E_W_4" type="standard_car" route="E_W" depart="4" departLane="random" departSpeed="10" />
<vehicle id="W_S_7" type="standard_car" route="W_S" depart="7" departLane="random" departSpeed="10" />
<vehicle id="N_W_14" type="standard_car" route="N_W" depart="14" departLane="random" departSpeed="10" />
<vehicle id="E_W_16" type="standard_car" route="E_W" depart="16" departLane="random" departSpeed="10" />
<vehicle id="N_S_16" type="standard_car" route="N_S" depart="16" departLane="random" departSpeed="10" />
<vehicle id="N_S_20" type="standard_car" route="N_S" depart="20" departLane="random" departSpeed="10" />
<vehicle id="E_W_21" type="standard_car" route="E_W" depart="21" departLane="random" departSpeed="10" />
<vehicle id="N_W_21" type="standard_car" route="N_W" depart="21" departLane="random" departSpeed="10" />
<vehicle id="N_E_21" type="standard_car" route="N_E" depart="21" departLane="random" departSpeed="10" />
<vehicle id="S_N_26" type="standard_car" route="S_N" depart="26" departLane="random" departSpeed="10" />
<vehicle id="S_N_29" type="standard_car" route="S_N" depart="29" departLane="random" departSpeed="10" />
<vehicle id="S_W_30" type="standard_car" route="S_W" depart="30" departLane="random" departSpeed="10" />
<vehicle id="N_S_33" type="standard_car" route="N_S" depart="33" departLane="random" departSpeed="10" />
<vehicle id="E_W_40" type="standard_car" route="E_W" depart="40" departLane="random" departSpeed="10" />
<vehicle id="N_W_44" type="standard_car" route="N_W" depart="44" departLane="random" departSpeed="10" />
<vehicle id="E_W_49" type="standard_car" route="E_W" depart="49" departLane="random" departSpeed="10" />
<vehicle id="N_S_49" type="standard_car" route="N_S" depart="49" departLane="random" departSpeed="10" />
<vehicle id="W_E_58" type="standard_car" route="W_E" depart="58" departLane="random" departSpeed="10" />
<vehicle id="N_W_61" type="standard_car" route="N_W" depart="61" departLane="random" departSpeed="10" />
<vehicle id="W_E_61" type="standard_car" route="W_E" depart="61" departLane="random" departSpeed="10" />
<vehicle id="S_E_61" type="standard_car" route="S_E" depart="61" departLane="random" departSpeed="10" />
<vehicle id="S_W_61" type="standard_car" route="S_W" depart="61" departLane="random" departSpeed="10" />
<vehicle id="S_W_67" type="standard_car" route="S_W" depart="67" departLane="random" departSpeed="10" />
<vehicle id="W_S_68" type="standard_car" route="W_S" depart="68" departLane="random" departSpeed="10" />
<vehicle id="N_W_70" type="standard_car" route="N_W" depart="70" departLane="random" departSpeed="10" />
<vehicle id="E_S_71" type="standard_car" route="E_S" depart="71" departLane="random" departSpeed="10" />
<vehicle id="E_W_79" type="standard_car" route="E_W" depart="79" departLane="random" departSpeed="10" />
<vehicle id="S_E_80" type="standard_car" route="S_E" depart="80" departLane="random" departSpeed="10" />
<vehicle id="N_S_86" type="standard_car" route="N_S" depart="86" departLane="random" departSpeed="10" />
<vehicle id="E_W_88" type="standard_car" route="E_W" depart="88" departLane="random" departSpeed="10" />
<vehicle id="S_N_91" type="standard_car" route="S_N" depart="91" departLane="random" departSpeed="10" />
<vehicle id="W_S_92" type="standard_car" route="W_S" depart="92" departLane="random" departSpeed="10" />
<vehicle id="N_S_93" type="standard_car" route="N_S" depart="93" departLane="random" departSpeed="10" />
<vehicle id="W_E_95" type="standard_car" route="W_E" depart="95" departLane="random" departSpeed="10" />
<vehicle id="E_W_100" type="standard_car" route="E_W" depart="100" departLane="random" departSpeed="10" />
<vehicle id="W_S_100" type="standard_car" route="W_S" depart="100" departLane="random" departSpeed="10" />
<vehicle id="S_N_100" type="standard_car" route="S_N" depart="100" departLane="random" departSpeed="10" />
<vehicle id="W_E_101" type="standard_car" route="W_E" depart="101" departLane="random" departSpeed="10" />
<vehicle id="W_S_107" type="standard_car" route="W_S" depart="107" departLane="random" departSpeed="10" />
<vehicle id="E_S_108" type="standard_car" route="E_S" depart="108" departLane="random" departSpeed="10" />
<vehicle id="S_N_112" type="standard_car" route="S_N" depart="112" departLane="random" departSpeed="10" />
<vehicle id="S_E_115" type="standard_car" route="S_E" depart="115" departLane="random" departSpeed="10" />
<vehicle id="W_E_116" type="standard_car" route="W_E" depart="116" departLane="random" departSpeed="10" />
<vehicle id="E_N_117" type="standard_car" route="E_N" depart="117" departLane="random" departSpeed="10" />
<vehicle id="S_N_117" type="standard_car" route="S_N" depart="117" departLane="random" departSpeed="10" />
<vehicle id="S_N_118" type="standard_car" route="S_N" depart="118" departLane="random" departSpeed="10" />
<vehicle id="N_S_121" type="standard_car" route="N_S" depart="121" departLane="random" departSpeed="10" />
<vehicle id="S_N_124" type="standard_car" route="S_N" depart="124" departLane="random" departSpeed="10" />
<vehicle id="N_W_127" type="standard_car" route="N_W" depart="127" departLane="random" departSpeed="10" />
<vehicle id="W_E_127" type="standard_car" route="W_E" depart="127" departLane="random" departSpeed="10" />
<vehicle id="N_S_133" type="standard_car" route="N_S" depart="133" departLane="random" departSpeed="10" />
<vehicle id="W_E_135" type="standard_car" route="W_E" depart="135" departLane="random" departSpeed="10" />
<vehicle id="E_S_136" type="standard_car" route="E_S" depart="136" departLane="random" departSpeed="10" />
<vehicle id="W_N_137" type="standard_car" route="W_N" depart="137" departLane="random" departSpeed="10" />
<vehicle id="E_W_138" type="standard_car" route="E_W" depart="138" departLane="random" departSpeed="10" />
<vehicle id="N_S_140" type="standard_car" route="N_S" depart="140" departLane="random" departSpeed="10" />
<vehicle id="N_S_141" type="standard_car" route="N_S" depart="141" departLane="random" departSpeed="10" />
<vehicle id="W_S_141" type="standard_car" route="W_S" depart="141" departLane="random" departSpeed="10" />
<vehicle id="E_S_154" type="standard_car" route="E_S" depart="154" departLane="random" departSpeed="10" />
<vehicle id="E_W_158" type="standard_car" route="E_W" depart="158" departLane="random" departSpeed="10" />
<vehicle id="S_N_158" type="standard_car" route="S_N" depart="158" departLane="random" departSpeed="10" />
<vehicle id="E_S_170" type="standard_car" route="E_S" depart="170" departLane="random" departSpeed="10" />
<vehicle id="N_S_170" type="standard_car" route="N_S" depart="170" departLane="random" departSpeed="10" />
<vehicle id="E_W_174" type="standard_car" route="E_W" depart="174" departLane="random" departSpeed="10" />
<vehicle id="N_S_176" type="standard_car" route="N_S" depart="176" departLane="random" departSpeed="10" />
<vehicle id="S_N_178" type="standard_car" route="S_N" depart="178" departLane="random" departSpeed="10" />
<vehicle id="E_W_179" type="standard_car" route="E_W" depart="179" departLane="random" departSpeed="10" />
<vehicle id="W_E_179" type="standard_car" route="W_E" depart="179" departLane="random" departSpeed="10" />
<vehicle id="E_W_184" type="standard_car" route="E_W" depart="184" departLane="random" departSpeed="10" />
<vehicle id="S_N_185" type="standard_car" route="S_N" depart="185" departLane="random" departSpeed="10" />
<vehicle id="E_S_188" type="standard_car" route="E_S" depart="188" departLane="random" departSpeed="10" />
<vehicle id="S_E_196" type="standard_car" route="S_E" depart="196" departLane="random" departSpeed="10" />
<vehicle id="N_S_197" type="standard_car" route="N_S" depart="197" departLane="random" departSpeed="10" />
<vehicle id="E_W_207" type="standard_car" route="E_W" depart="207" departLane="random" departSpeed="10" />
<vehicle id="E_W_208" type="standard_car" route="E_W" depart="208" departLane="random" departSpeed="10" />
<vehicle id="S_N_209" type="standard_car" route="S_N" depart="209" departLane="random" departSpeed="10" />
<vehicle id="S_N_215" type="standard_car" route="S_N" depart="215" departLane="random" departSpeed="10" />
<vehicle id="E_W_217" type="standard_car" route="E_W" depart="217" departLane="random" departSpeed="10" />
<vehicle id="S_E_217" type="standard_car" route="S_E" depart="217" departLane="random" departSpeed="10" />
<vehicle id="N_W_225" type="standard_car" route="N_W" depart="225" departLane="random" departSpeed="10" />
<vehicle id="W_E_225" type="standard_car" route="W_E" depart="225" departLane="random" departSpeed="10" />
<vehicle id="N_W_226" type="standard_car" route="N_W" depart="226" departLane="random" departSpeed="10" />
<vehicle id="S_W_229" type="standard_car" route="S_W" depart="229" departLane="random" departSpeed="10" />
<vehicle id="S_N_233" type="standard_car" route="S_N" depart="233" departLane="random" departSpeed="10" />
<vehicle id="E_N_237" type="standard_car" route="E_N" depart="237" departLane="random" departSpeed="10" />
<vehicle id="E_N_245" type="standard_car" route="E_N" depart="245" departLane="random" departSpeed="10" />
<vehicle id="E_N_263" type="standard_car" route="E_N" depart="263" departLane="random" departSpeed="10" />
<vehicle id="S_N_264" type="standard_car" route="S_N" depart="264" departLane="random" departSpeed="10" />
<vehicle id="N_E_278" type="standard_car" route="N_E" depart="278" departLane="random" departSpeed="10" />
<vehicle id="N_S_280" type="standard_car" route="N_S" depart="280" departLane="random" departSpeed="10" />
<vehicle id="W_E_283" type="standard_car" route="W_E" depart="283" departLane="random" departSpeed="10" />
<vehicle id="W_S_285" type="standard_car" route="W_S" depart="285" departLane="random" departSpeed="10" />
<vehicle id="E_W_287" type="standard_car" route="E_W" depart="287" departLane="random" departSpeed="10" />
<vehicle id="S_N_293" type="standard_car" route="S_N" depart="293" departLane="random" departSpeed="10" />
<vehicle id="E_N_294" type="standard_car" route="E_N" depart="294" departLane="random" departSpeed="10" />
<vehicle id="S_N_296" type="standard_car" route="S_N" depart="296" departLane="random" departSpeed="10" />
<vehicle id="S_N_298" type="standard_car" route="S_N" depart="298" departLane="random" departSpeed="10" />
<vehicle id="N_S_307" type="standard_car" route="N_S" depart="307" departLane="random" departSpeed="10" />
<vehicle id="E_W_312" type="standard_car" route="E_W" depart="312" departLane="random" departSpeed="10" />
<vehicle id="E_S_313" type="standard_car" route="E_S" depart="313" departLane="random" departSpeed="10" />
<vehicle id="W_N_313" type="standard_car" route="W_N" depart="313" departLane="random" departSpeed="10" />
<vehicle id="S_N_313" type="standard_car" route="S_N" depart="313" departLane="random" departSpeed="10" />
<vehicle id="W_S_314" type="standard_car" route="W_S" depart="314" departLane="random" departSpeed="10" />
<vehicle id="S_N_315" type="standard_car" route="S_N" depart="315" departLane="random" departSpeed="10" />
<vehicle id="W_E_322" type="standard_car" route="W_E" depart="322" departLane="random" departSpeed="10" />
<vehicle id="E_W_324" type="standard_car" route="E_W" depart="324" departLane="random" departSpeed="10" />
<vehicle id="S_E_327" type="standard_car" route="S_E" depart="327" departLane="random" departSpeed="10" />
<vehicle id="S_N_328" type="standard_car" route="S_N" depart="328" departLane="random" departSpeed="10" />
<vehicle id="E_W_330" type="standard_car" route="E_W" depart="330" departLane="random" departSpeed="10" />
<vehicle id="N_S_331" type="standard_car" route="N_S" depart="331" departLane="random" departSpeed="10" />
<vehicle id="N_E_331" type="standard_car" route="N_E" depart="331" departLane="random" departSpeed="10" />
<vehicle id="S_N_334" type="standard_car" route="S_N" depart="334" departLane="random" departSpeed="10" />
<vehicle id="W_N_335" type="standard_car" route="W_N" depart="335" departLane="random" departSpeed="10" />
<vehicle id="E_W_338" type="standard_car" route="E_W" depart="338" departLane="random" departSpeed="10" />
<vehicle id="E_W_352" type="standard_car" route="E_W" depart="352" departLane="random" departSpeed="10" />
<vehicle id="S_E_353" type="standard_car" route="S_E" depart="353" departLane="random" departSpeed="10" />
<vehicle id="N_W_355" type="standard_car" route="N_W" depart="355" departLane="random" departSpeed="10" />
<vehicle id="W_S_357" type="standard_car" route="W_S" depart="357" departLane="random" departSpeed="10" />
<vehicle id="N_S_361" type="standard_car" route="N_S" depart="361" departLane="random" departSpeed="10" />
<vehicle id="N_S_373" type="standard_car" route="N_S" depart="373" departLane="random" departSpeed="10" />
<vehicle id="N_W_376" type="standard_car" route="N_W" depart="376" departLane="random" departSpeed="10" />
<vehicle id="N_S_378" type="standard_car" route="N_S" depart="378" departLane="random" departSpeed="10" />
<vehicle id="S_N_379" type="standard_car" route="S_N" depart="379" departLane="random" departSpeed="10" />
<vehicle id="E_W_380" type="standard_car" route="E_W" depart="380" departLane="random" departSpeed="10" />
<vehicle id="N_S_380" type="standard_car" route="N_S" depart="380" departLane="random" departSpeed="10" />
<vehicle id="S_N_381" type="standard_car" route="S_N" depart="381" departLane="random" departSpeed="10" />
<vehicle id="E_S_382" type="standard_car" route="E_S" depart="382" departLane="random" departSpeed="10" />
<vehicle id="N_W_387" type="standard_car" route="N_W" depart="387" departLane="random" departSpeed="10" />
<vehicle id="E_S_391" type="standard_car" route="E_S" depart="391" departLane="random" departSpeed="10" />
<vehicle id="N_S_391" type="standard_car" route="N_S" depart="391" departLane="random" departSpeed="10" />
<vehicle id="S_N_393" type="standard_car" route="S_N" depart="393" departLane="random" departSpeed="10" />
<vehicle id="E_W_396" type="standard_car" route="E_W" depart="396" departLane="random" departSpeed="10" />
<vehicle id="E_N_397" type="standard_car" route="E_N" depart="397" departLane="random" departSpeed="10" />
<vehicle id="N_S_418" type="standard_car" route="N_S" depart="418" departLane="random" departSpeed="10" />
<vehicle id="E_W_419" type="standard_car" route="E_W" depart="419" departLane="random" departSpeed="10" />
<vehicle id="S_E_419" type="standard_car" route="S_E" depart="419" departLane="random" departSpeed="10" />
<vehicle id="S_W_422" type="standard_car" route="S_W" depart="422" departLane="random" departSpeed="10" />
<vehicle id="W_E_425" type="standard_car" route="W_E" depart="425" departLane="random" departSpeed="10" />
<vehicle id="E_N_427" type="standard_car" route="E_N" depart="427" departLane="random" departSpeed="10" />
<vehicle id="W_S_427" type="standard_car" route="W_S" depart="427" departLane="random" departSpeed="10" />
<vehicle id="E_W_430" type="standard_car" route="E_W" depart="430" departLane="random" departSpeed="10" />
<vehicle id="S_E_430" type="standard_car" route="S_E" depart="430" departLane="random" departSpeed="10" />
<vehicle id="E_W_432" type="standard_car" route="E_W" depart="432" departLane="random" departSpeed="10" />
<vehicle id="S_N_438" type="standard_car" route="S_N" depart="438" departLane="random" departSpeed="10" />
<vehicle id="E_W_439" type="standard_car" route="E_W" depart="439" departLane="random" departSpeed="10" />
<vehicle id="S_N_445" type="standard_car" route="S_N" depart="445" departLane="random" departSpeed="10" />
<vehicle id="W_N_447" type="standard_car" route="W_N" depart="447" departLane="random" departSpeed="10" />
<vehicle id="N_S_449" type="standard_car" route="N_S" depart="449" departLane="random" departSpeed="10" />
<vehicle id="E_W_453" type="standard_car" route="E_W" depart="453" departLane="random" departSpeed="10" />
<vehicle id="W_S_458" type="standard_car" route="W_S" depart="458" departLane="random" departSpeed="10" />
<vehicle id="E_N_463" type="standard_car" route="E_N" depart="463" departLane="random" departSpeed="10" />
<vehicle id="E_W_464" type="standard_car" route="E_W" depart="464" departLane="random" departSpeed="10" />
<vehicle id="N_S_464" type="standard_car" route="N_S" depart="464" departLane="random" departSpeed="10" />
<vehicle id="S_N_468" type="standard_car" route="S_N" depart="468" departLane="random" departSpeed="10" />
<vehicle id="N_S_471" type="standard_car" route="N_S" depart="471" departLane="random" departSpeed="10" />
<vehicle id="E_W_473" type="standard_car" route="E_W" depart="473" departLane="random" departSpeed="10" />
<vehicle id="S_E_476" type="standard_car" route="S_E" depart="476" departLane="random" departSpeed="10" />
<vehicle id="N_W_487" type="standard_car" route="N_W" depart="487" departLane="random" departSpeed="10" />
<vehicle id="S_N_489" type="standard_car" route="S_N" depart="489" departLane="random" departSpeed="10" />
<vehicle id="W_E_496" type="standard_car" route="W_E" depart="496" departLane="random" departSpeed="10" />
<vehicle id="W_N_500" type="standard_car" route="W_N" depart="500" departLane="random" departSpeed="10" />
<vehicle id="E_W_502" type="standard_car" route="E_W" depart="502" departLane="random" departSpeed="10" />
<vehicle id="S_N_502" type="standard_car" route="S_N" depart="502" departLane="random" departSpeed="10" />
<vehicle id="S_N_503" type="standard_car" route="S_N" depart="503" departLane="random" departSpeed="10" />
<vehicle id="E_N_504" type="standard_car" route="E_N" depart="504" departLane="random" departSpeed="10" />
<vehicle id="N_W_504" type="standard_car" route="N_W" depart="504" departLane="random" departSpeed="10" />
<vehicle id="N_W_511" type="standard_car" route="N_W" depart="511" departLane="random" departSpeed="10" />
<vehicle id="W_E_524" type="standard_car" route="W_E" depart="524" departLane="random" departSpeed="10" />
<vehicle id="S_N_542" type="standard_car" route="S_N" depart="542" departLane="random" departSpeed="10" />
<vehicle id="W_E_544" type="standard_car" route="W_E" depart="544" departLane="random" departSpeed="10" />
<vehicle id="N_S_547" type="standard_car" route="N_S" depart="547" departLane="random" departSpeed="10" />
<vehicle id="W_E_551" type="standard_car" route="W_E" depart="551" departLane="random" departSpeed="10" />
<vehicle id="E_N_555" type="standard_car" route="E_N" depart="555" departLane="random" departSpeed="10" />
<vehicle id="E_W_564" type="standard_car" route="E_W" depart="564" departLane="random" departSpeed="10" />
<vehicle id="S_N_564" type="standard_car" route="S_N" depart="564" departLane="random" departSpeed="10" />
<vehicle id="S_N_567" type="standard_car" route="S_N" depart="567" departLane="random" departSpeed="10" />
<vehicle id="W_E_568" type="standard_car" route="W_E" depart="568" departLane="random" departSpeed="10" />
<vehicle id="S_E_568" type="standard_car" route="S_E" depart="568" departLane="random" departSpeed="10" />
<vehicle id="S_N_569" type="standard_car" route="S_N" depart="569" departLane="random" departSpeed="10" />
<vehicle id="W_E_571" type="standard_car" route="W_E" depart="571" departLane="random" departSpeed="10" />
<vehicle id="E_W_572" type="standard_car" route="E_W" depart="572" departLane="random" departSpeed="10" />
<vehicle id="W_S_580" type="standard_car" route="W_S" depart="580" departLane="random" departSpeed="10" />
<vehicle id="S_N_580" type="standard_car" route="S_N" depart="580" departLane="random" departSpeed="10" />
<vehicle id="W_S_588" type="standard_car" route="W_S" depart="588" departLane="random" departSpeed="10" />
<vehicle id="E_W_589" type="standard_car" route="E_W" depart="589" departLane="random" departSpeed="10" />
<vehicle id="W_E_600" type="standard_car" route="W_E" depart="600" departLane="random" departSpeed="10" />
<vehicle id="N_S_604" type="standard_car" route="N_S" depart="604" departLane="random" departSpeed="10" />
<vehicle id="S_N_606" type="standard_car" route="S_N" depart="606" departLane="random" departSpeed="10" />
<vehicle id="W_S_608" type="standard_car" route="W_S" depart="608" departLane="random" departSpeed="10" />
<vehicle id="E_N_609" type="standard_car" route="E_N" depart="609" departLane="random" departSpeed="10" />
<vehicle id="E_S_612" type="standard_car" route="E_S" depart="612" departLane="random" departSpeed="10" />
<vehicle id="N_S_613" type="standard_car" route="N_S" depart="613" departLane="random" departSpeed="10" />
<vehicle id="N_W_615" type="standard_car" route="N_W" depart="615" departLane="random" departSpeed="10" />
<vehicle id="N_S_618" type="standard_car" route="N_S" depart="618" departLane="random" departSpeed="10" />
<vehicle id="E_W_619" type="standard_car" route="E_W" depart="619" departLane="random" departSpeed="10" />
<vehicle id="N_S_619" type="standard_car" route="N_S" depart="619" departLane="random" departSpeed="10" />
<vehicle id="S_W_622" type="standard_car" route="S_W" depart="622" departLane="random" departSpeed="10" />
<vehicle id="E_W_625" type="standard_car" route="E_W" depart="625" departLane="random" departSpeed="10" />
<vehicle id="N_W_630" type="standard_car" route="N_W" depart="630" departLane="random" departSpeed="10" />
<vehicle id="W_E_637" type="standard_car" route="W_E" depart="637" departLane="random" departSpeed="10" />
<vehicle id="W_N_638" type="standard_car" route="W_N" depart="638" departLane="random" departSpeed="10" />
<vehicle id="W_N_643" type="standard_car" route="W_N" depart="643" departLane="random" departSpeed="10" />
<vehicle id="S_N_661" type="standard_car" route="S_N" depart="661" departLane="random" departSpeed="10" />
<vehicle id="N_S_674" type="standard_car" route="N_S" depart="674" departLane="random" departSpeed="10" />
<vehicle id="S_N_678" type="standard_car" route="S_N" depart="678" departLane="random" departSpeed="10" />
<vehicle id="W_E_682" type="standard_car" route="W_E" depart="682" departLane="random" departSpeed="10" />
<vehicle id="S_E_684" type="standard_car" route="S_E" depart="684" departLane="random" departSpeed="10" />
<vehicle id="E_N_691" type="standard_car" route="E_N" depart="691" departLane="random" departSpeed="10" />
<vehicle id="N_S_695" type="standard_car" route="N_S" depart="695" departLane="random" departSpeed="10" />
<vehicle id="S_N_695" type="standard_car" route="S_N" depart="695" departLane="random" departSpeed="10" />
<vehicle id="N_W_697" type="standard_car" route="N_W" depart="697" departLane="random" departSpeed="10" />
<vehicle id="E_W_702" type="standard_car" route="E_W" depart="702" departLane="random" departSpeed="10" />
<vehicle id="W_E_702" type="standard_car" route="W_E" depart="702" departLane="random" departSpeed="10" />
<vehicle id="W_E_709" type="standard_car" route="W_E" depart="709" departLane="random" departSpeed="10" />
<vehicle id="S_E_711" type="standard_car" route="S_E" depart="711" departLane="random" departSpeed="10" />
<vehicle id="W_S_715" type="standard_car" route="W_S" depart="715" departLane="random" departSpeed="10" />
<vehicle id="W_S_718" type="standard_car" route="W_S" depart="718" departLane="random" departSpeed="10" />
<vehicle id="W_E_719" type="standard_car" route="W_E" depart="719" departLane="random" departSpeed="10" />
<vehicle id="E_W_726" type="standard_car" route="E_W" depart="726" departLane="random" departSpeed="10" />
<vehicle id="W_E_726" type="standard_car" route="W_E" depart="726" departLane="random" departSpeed="10" />
<vehicle id="S_N_729" type="standard_car" route="S_N" depart="729" departLane="random" departSpeed="10" />
<vehicle id="N_S_731" type="standard_car" route="N_S" depart="731" departLane="random" departSpeed="10" />
<vehicle id="N_W_736" type="standard_car" route="N_W" depart="736" departLane="random" departSpeed="10" />
<vehicle id="N_S_742" type="standard_car" route="N_S" depart="742" departLane="random" departSpeed="10" />
<vehicle id="W_S_744" type="standard_car" route="W_S" depart="744" departLane="random" departSpeed="10" />
<vehicle id="E_W_746" type="standard_car" route="E_W" depart="746" departLane="random" departSpeed="10" />
<vehicle id="W_E_752" type="standard_car" route="W_E" depart="752" departLane="random" departSpeed="10" />
<vehicle id="S_N_754" type="standard_car" route="S_N" depart="754" departLane="random" departSpeed="10" />
<vehicle id="W_E_756" type="standard_car" route="W_E" depart="756" departLane="random" departSpeed="10" />
<vehicle id="W_E_757" type="standard_car" route="W_E" depart="757" departLane="random" departSpeed="10" />
<vehicle id="S_N_759" type="standard_car" route="S_N" depart="759" departLane="random" departSpeed="10" />
<vehicle id="E_W_763" type="standard_car" route="E_W" depart="763" departLane="random" departSpeed="10" />
<vehicle id="E_W_769" type="standard_car" route="E_W" depart="769" departLane="random" departSpeed="10" />
<vehicle id="W_E_773" type="standard_car" route="W_E" depart="773" departLane="random" departSpeed="10" />
<vehicle id="S_N_788" type="standard_car" route="S_N" depart="788" departLane="random" departSpeed="10" />
<vehicle id="E_W_790" type="standard_car" route="E_W" depart="790" departLane="random" departSpeed="10" />
<vehicle id="S_W_792" type="standard_car" route="S_W" depart="792" departLane="random" departSpeed="10" />
<vehicle id="S_W_797" type="standard_car" route="S_W" depart="797" departLane="random" departSpeed="10" />
<vehicle id="S_E_798" type="standard_car" route="S_E" depart="798" departLane="random" departSpeed="10" />
<vehicle id="E_N_800" type="standard_car" route="E_N" depart="800" departLane="random" departSpeed="10" />
<vehicle id="N_S_801" type="standard_car" route="N_S" depart="801" departLane="random" departSpeed="10" />
<vehicle id="S_E_808" type="standard_car" route="S_E" depart="808" departLane="random" departSpeed="10" />
<vehicle id="W_E_818" type="standard_car" route="W_E" depart="818" departLane="random" departSpeed="10" />
<vehicle id="E_W_822" type="standard_car" route="E_W" depart="822" departLane="random" departSpeed="10" />
<vehicle id="W_E_832" type="standard_car" route="W_E" depart="832" departLane="random" departSpeed="10" />
<vehicle id="S_N_833" type="standard_car" route="S_N" depart="833" departLane="random" departSpeed="10" />
<vehicle id="E_W_838" type="standard_car" route="E_W" depart="838" departLane="random" departSpeed="10" />
<vehicle id="W_S_839" type="standard_car" route="W_S" depart="839" departLane="random" departSpeed="10" />
<vehicle id="W_E_843" type="standard_car" route="W_E" depart="843" departLane="random" departSpeed="10" />
<vehicle id="N_S_846" type="standard_car" route="N_S" depart="846" departLane="random" departSpeed="10" />
<vehicle id="S_W_846" type="standard_car" route="S_W" depart="846" departLane="random" departSpeed="10" />
<vehicle id="S_W_850" type="standard_car" route="S_W" depart="850" departLane="random" departSpeed="10" />
<vehicle id="N_E_854" type="standard_car" route="N_E" depart="854" departLane="random" departSpeed="10" />
<vehicle id="W_E_855" type="standard_car" route="W_E" depart="855" departLane="random" departSpeed="10" />
<vehicle id="W_S_856" type="standard_car" route="W_S" depart="856" departLane="random" departSpeed="10" />
<vehicle id="E_W_860" type="standard_car" route="E_W" depart="860" departLane="random" departSpeed="10" />
<vehicle id="E_W_861" type="standard_car" route="E_W" depart="861" departLane="random" departSpeed="10" />
<vehicle id="E_S_863" type="standard_car" route="E_S" depart="863" departLane="random" departSpeed="10" />
<vehicle id="N_S_875" type="standard_car" route="N_S" depart="875" departLane="random" departSpeed="10" />
<vehicle id="S_E_876" type="standard_car" route="S_E" depart="876" departLane="random" departSpeed="10" />
<vehicle id="N_W_878" type="standard_car" route="N_W" depart="878" departLane="random" departSpeed="10" />
<vehicle id="N_S_878" type="standard_car" route="N_S" depart="878" departLane="random" departSpeed="10" />
<vehicle id="S_N_884" type="standard_car" route="S_N" depart="884" departLane="random" departSpeed="10" />
<vehicle id="W_E_886" type="standard_car" route="W_E" depart="886" departLane="random" departSpeed="10" />
<vehicle id="S_N_891" type="standard_car" route="S_N" depart="891" departLane="random" departSpeed="10" />
<vehicle id="N_S_898" type="standard_car" route="N_S" depart="898" departLane="random" departSpeed="10" />
<vehicle id="N_E_902" type="standard_car" route="N_E" depart="902" departLane="random" departSpeed="10" />
<vehicle id="S_N_902" type="standard_car" route="S_N" depart="902" departLane="random" departSpeed="10" />
<vehicle id="E_W_907" type="standard_car" route="E_W" depart="907" departLane="random" departSpeed="10" />
<vehicle id="W_E_907" type="standard_car" route="W_E" depart="907" departLane="random" departSpeed="10" />
<vehicle id="E_W_909" type="standard_car" route="E_W" depart="909" departLane="random" departSpeed="10" />
<vehicle id="S_E_909" type="standard_car" route="S_E" depart="909" departLane="random" departSpeed="10" />