<routes> 
<vType accel="1.0" decel="4.5" id="standard_car" length="5.0" minGap="2.5" maxSpeed="25" sigma="0.5" />
<route id="E_N" edges="1i 2o"/>
<route id="E_W" edges="1i 3o"/>
<route id="E_S" edges="1i 4o"/>
<route id="N_W" edges="2i 3o"/>
<route id="N_S" edges="2i 4o"/>
<route id="N_E" edges="2i 1o"/>
<route id="W_S" edges="3i 4o"/>
<route id="W_E" edges="3i 1o"/>
<route id="W_N" edges="3i 2o"/>
<route id="S_E" edges="4i 1o"/>
<route id="S_N" edges="4i 2o"/>
<route id="S_W" edges="4i 3o"/>
<vehicle id="W_E_3" type="standard_car" route="W_E" depart="3" departLane="random" departSpeed="10" />
<vehicle id="E_N_4" type="standard_car" route="E_N" depart="4" departLane="random" departSpeed="10" />
<vehicle id="E_W_6" type="standard_car" route="E_W" depart="6" departLane="random" departSpeed="10" />
<vehicle id="S_N_7" type="standard_car" route="S_N" depart="7" departLane="random" departSpeed="10" />
<vehicle id="S_N_9" type="standard_car" route="S_N" depart="9" departLane="random" departSpeed="10" />
<vehicle id="N_S_14" type="standard_car" route="N_S" depart="14" departLane="random" departSpeed="10" />
<vehicle id="E_N_15" type="standard_car" route="E_N" depart="15" departLane="random" departSpeed="10" />
<vehicle id="N_S_23" type="standard_car" route="N_S" depart="23" departLane="random" departSpeed="10" />
<vehicle id="S_N_23" type="standard_car" route="S_N" depart="23" departLane="random" departSpeed="10" />
<vehicle id="N_W_35" type="standard_car" route="N_W" depart="35" departLane="random" departSpeed="10" />
<vehicle id="S_N_37" type="standard_car" route="S_N" depart="37" departLane="random" departSpeed="10" />
<vehicle id="E_N_40" type="standard_car" route="E_N" depart="40" departLane="random" departSpeed="10" />
<vehicle id="E_S_45" type="standard_car" route="E_S" depart="45" departLane="random" departSpeed="10" />
<vehicle id="E_W_46" type="standard_car" route="E_W" depart="46" departLane="random" departSpeed="10" />
<vehicle id="N_S_51" type="standard_car" route="N_S" depart="51" departLane="random" departSpeed="10" />
<vehicle id="N_S_54" type="standard_car" route="N_S" depart="54" departLane="random" departSpeed="10" />
<vehicle id="W_E_54" type="standard_car" route="W_E" depart="54" departLane="random" departSpeed="10" />
<vehicle id="S_E_66" type="standard_car" route="S_E" depart="66" departLane="random" departSpeed="10" />
<vehicle id="W_E_67" type="standard_car" route="W_E" depart="67" departLane="random" departSpeed="10" />
<vehicle id="E_W_70" type="standard_car" route="E_W" depart="70" departLane="random" departSpeed="10" />
<vehicle id="E_W_72" type="standard_car" route="E_W" depart="72" departLane="random" departSpeed="10" />
<vehicle id="N_S_72" type="standard_car" route="N_S" depart="72" departLane="random" departSpeed="10" />
<vehicle id="W_S_75" type="standard_car" route="W_S" depart="75" departLane="random" departSpeed="10" />
<vehicle id="S_E_78" type="standard_car" route="S_E" depart="78" departLane="random" departSpeed="10" />
<vehicle id="W_E_83" type="standard_car" route="W_E" depart="83" departLane="random" departSpeed="10" />
<vehicle id="E_W_97" type="standard_car" route="E_W" depart="97" departLane="random" departSpeed="10" />
<vehicle id="W_E_104" type="standard_car" route="W_E" depart="104" departLane="random" departSpeed="10" />
<vehicle id="S_N_105" type="standard_car" route="S_N" depart="105" departLane="random" departSpeed="10" />
<vehicle id="W_E_107" type="standard_car" route="W_E" depart="107" departLane="random" departSpeed="10" />
<vehicle id="W_N_107" type="standard_car" route="W_N" depart="107" departLane="random" departSpeed="10" />
<vehicle id="N_S_109" type="standard_car" route="N_S" depart="109" departLane="random" departSpeed="10" />
<vehicle id="W_E_109" type="standard_car" route="W_E" depart="109" departLane="random" departSpeed="10" />
<vehicle id="S_W_113" type="standard_car" route="S_W" depart="113" departLane="random" departSpeed="10" />
<vehicle id="N_S_114" type="standard_car" route="N_S" depart="114" departLane="random" departSpeed="10" />
<vehicle id="W_E_115" type="standard_car" route="W_E" depart="115" departLane="random" departSpeed="10" />
<vehicle id="S_N_115" type="standard_car" route="S_N" depart="115" departLane="random" departSpeed="10" />
<vehicle id="S_N_118" type="standard_car" route="S_N" depart="118" departLane="random" departSpeed="10" />
<vehicle id="N_S_119" type="standard_car" route="N_S" depart="119" departLane="random" departSpeed="10" />
<vehicle id="W_S_126" type="standard_car" route="W_S" depart="126" departLane="random" departSpeed="10" />
<vehicle id="S_N_136" type="standard_car" route="S_N" depart="136" departLane="random" departSpeed="10" />
<vehicle id="S_N_139" type="standard_car" route="S_N" depart="139" departLane="random" departSpeed="10" />
<vehicle id="S_E_143" type="standard_car" route="S_E" depart="143" departLane="random" departSpeed="10" />
<vehicle id="S_W_143" type="standard_car" route="S_W" depart="143" departLane="random" departSpeed="10" />
<vehicle id="E_W_144" type="standard_car" route="E_W" depart="144" departLane="random" departSpeed="10" />
<vehicle id="N_W_144" type="standard_car" route="N_W" depart="144" departLane="random" departSpeed="10" />
<vehicle id="S_N_144" type="standard_car" route="S_N" depart="144" departLane="random" departSpeed="10" />
<vehicle id="W_N_146" type="standard_car" route="W_N" depart="146" departLane="random" departSpeed="10" />
<vehicle id="W_E_147" type="standard_car" route="W_E" depart="147" departLane="random" departSpeed="10" />
<vehicle id="S_N_148" type="standard_car" route="S_N" depart="148" departLane="random" departSpeed="10" />
<vehicle id="N_S_149" type="standard_car" route="N_S" depart="149" departLane="random" departSpeed="10" />
<vehicle id="E_W_158" type="standard_car" route="E_W" depart="158" departLane="random" departSpeed="10" />
<vehicle id="S_W_166" type="standard_car" route="S_W" depart="166" departLane="random" departSpeed="10" />
<vehicle id="S_W_167" type="standard_car" route="S_W" depart="167" departLane="random" departSpeed="10" />
<vehicle id="W_S_170" type="standard_car" route="W_S" depart="170" departLane="random" departSpeed="10" />
<vehicle id="E_W_176" type="standard_car" route="E_W" depart="176" departLane="random" departSpeed="10" />
<vehicle id="E_W_178" type="standard_car" route="E_W" depart="178" departLane="random" departSpeed="10" />
<vehicle id="W_S_180" type="standard_car" route="W_S" depart="180" departLane="random" departSpeed="10" />
<vehicle id="N_S_186" type="standard_car" route="N_S" depart="186" departLane="random" departSpeed="10" />
<vehicle id="E_N_195" type="standard_car" route="E_N" depart="195" departLane="random" departSpeed="10" />
<vehicle id="S_N_196" type="standard_car" route="S_N" depart="196" departLane="random" departSpeed="10" />
<vehicle id="E_W_198" type="standard_car" route="E_W" depart="198" departLane="random" departSpeed="10" />
<vehicle id="S_N_200" type="standard_car" route="S_N" depart="200" departLane="random" departSpeed="10" />
<vehicle id="S_E_206" type="standard_car" route="S_E" depart="206" departLane="random" departSpeed="10" />
<vehicle id="N_S_208" type="standard_car" route="N_S" depart="208" departLane="random" departSpeed="10" />
<vehicle id="S_E_210" type="standard_car" route="S_E" depart="210" departLane="random" departSpeed="10" />
<vehicle id="S_N_222" type="standard_car" route="S_N" depart="222" departLane="random" departSpeed="10" />
<vehicle id="S_N_227" type="standard_car" route="S_N" depart="227" departLane="random" departSpeed="10" />
<vehicle id="E_N_230" type="standard_car" route="E_N" depart="230" departLane="random" departSpeed="10" />
<vehicle id="W_E_230" type="standard_car" route="W_E" depart="230" departLane="random" departSpeed="10" />
<vehicle id="S_N_230" type="standard_car" route="S_N" depart="230" departLane="random" departSpeed="10" />
<vehicle id="E_W_231" type="standard_car" route="E_W" depart="231" departLane="random" departSpeed="10" />
<vehicle id="W_E_231" type="standard_car" route="W_E" depart="231" departLane="random" departSpeed="10" />
<vehicle id="N_S_233" type="standard_car" route="N_S" depart="233" departLane="random" departSpeed="10" />
<vehicle id="S_N_242" type="standard_car" route="S_N" depart="242" departLane="random" departSpeed="10" />
<vehicle id="E_W_243" type="standard_car" route="E_W" depart="243" departLane="random" departSpeed="10" />
<vehicle id="N_W_250" type="standard_car" route="N_W" depart="250" departLane="random" departSpeed="10" />
<vehicle id="W_S_254" type="standard_car" route="W_S" depart="254" departLane="random" departSpeed="10" />
<vehicle id="S_N_254" type="standard_car" route="S_N" depart="254" departLane="random" departSpeed="10" />
<vehicle id="E_S_255" type="standard_car" route="E_S" depart="255" departLane="random" departSpeed="10" />
<vehicle id="N_W_255" type="standard_car" route="N_W" depart="255" departLane="random" departSpeed="10" />
<vehicle id="E_N_256" type="standard_car" route="E_N" depart="256" departLane="random" departSpeed="10" />
<vehicle id="N_W_263" type="standard_car" route="N_W" depart="263" departLane="random" departSpeed="10" />
<vehicle id="S_E_266" type="standard_car" route="S_E" depart="266" departLane="random" departSpeed="10" />
<vehicle id="N_S_268" type="standard_car" route="N_S" depart="268" departLane="random" departSpeed="10" />
<vehicle id="S_N_268" type="standard_car" route="S_N" depart="268" departLane="random" departSpeed="10" />
<vehicle id="E_W_270" type="standard_car" route="E_W" depart="270" departLane="random" departSpeed="10" />
<vehicle id="N_E_271" type="standard_car" route="N_E" depart="271" departLane="random" departSpeed="10" />
<vehicle id="E_W_272" type="standard_car" route="E_W" depart="272" departLane="random" departSpeed="10" />
<vehicle id="E_N_275" type="standard_car" route="E_N" depart="275" departLane="random" departSpeed="10" />
<vehicle id="N_S_276" type="standard_car" route="N_S" depart="276" departLane="random" departSpeed="10" />
<vehicle id="N_E_277" type="standard_car" route="N_E" depart="277" departLane="random" departSpeed="10" />
<vehicle id="E_S_279" type="standard_car" route="E_S" depart="279" departLane="random" departSpeed="10" />
<vehicle id="E_W_280" type="standard_car" route="E_W" depart="280" departLane="random" departSpeed="10" />
<vehicle id="W_E_280" type="standard_car" route="W_E" depart="280" departLane="random" departSpeed="10" />
<vehicle id="S_N_281" type="standard_car" route="S_N" depart="281" departLane="random" departSpeed="10" />
<vehicle id="E_W_282" type="standard_car" route="E_W" depart="282" departLane="random" departSpeed="10" />
<vehicle id="N_W_282" type="standard_car" route="N_W" depart="282" departLane="random" departSpeed="10" />
<vehicle id="E_S_285" type="standard_car" route="E_S" depart="285" departLane="random" departSpeed="10" />
<vehicle id="W_E_287" type="standard_car" route="W_E" depart="287" departLane="random" departSpeed="10" />
<vehicle id="S_N_287" type="standard_car" route="S_N" depart="287" departLane="random" departSpeed="10" />
<vehicle id="W_E_291" type="standard_car" route="W_E" depart="291" departLane="random" departSpeed="10" />
<vehicle id="E_N_295" type="standard_car" route="E_N" depart="295" departLane="random" departSpeed="10" />
<vehicle id="S_E_302" type="standard_car" route="S_E" depart="302" departLane="random" departSpeed="10" />
<vehicle id="E_N_315" type="standard_car" route="E_N" depart="315" departLane="random" departSpeed="10" />
<vehicle id="N_S_323" type="standard_car" route="N_S" depart="323" departLane="random" departSpeed="10" />
<vehicle id="E_W_326" type="standard_car" route="E_W" depart="326" departLane="random" departSpeed="10" />
<vehicle id="S_N_330" type="standard_car" route="S_N" depart="330" departLane="random" departSpeed="10" />
<vehicle id="S_N_331" type="standard_car" route="S_N" depart="331" departLane="random" departSpeed="10" />
<vehicle id="W_S_335" type="standard_car" route="W_S" depart="335" departLane="random" departSpeed="10" />
<vehicle id="N_E_337" type="standard_car" route="N_E" depart="337" departLane="random" departSpeed="10" />
<vehicle id="S_E_339" type="standard_car" route="S_E" depart="339" departLane="random" departSpeed="10" />
<vehicle id="E_W_346" type="standard_car" route="E_W" depart="346" departLane="random" departSpeed="10" />
<vehicle id="N_S_351" type="standard_car" route="N_S" depart="351" departLane="random" departSpeed="10" />
<vehicle id="W_S_351" type="standard_car" route="W_S" depart="351" departLane="random" departSpeed="10" />
<vehicle id="E_S_352" type="standard_car" route="E_S" depart="352" departLane="random" departSpeed="10" />
<vehicle id="W_E_353" type="standard_car" route="W_E" depart="353" departLane="random" departSpeed="10" />
<vehicle id="W_S_355" type="standard_car" route="W_S" depart="355" departLane="random" departSpeed="10" />
<vehicle id="W_E_358" type="standard_car" route="W_E" depart="358" departLane="random" departSpeed="10" />
<vehicle id="W_E_362" type="standard_car" route="W_E" depart="362" departLane="random" departSpeed="10" />
<vehicle id="E_S_364" type="standard_car" route="E_S" depart="364" departLane="random" departSpeed="10" />
<vehicle id="N_W_364" type="standard_car" route="N_W" depart="364" departLane="random" departSpeed="10" />
<vehicle id="N_S_364" type="standard_car" route="N_S" depart="364" departLane="random" departSpeed="10" />
<vehicle id="W_N_364" type="standard_car" route="W_N" depart="364" departLane="random" departSpeed="10" />
<vehicle id="S_N_366" type="standard_car" route="S_N" depart="366" departLane="random" departSpeed="10" />
<vehicle id="N_S_375" type="standard_car" route="N_S" depart="375" departLane="random" departSpeed="10" />
<vehicle id="E_W_380" type="standard_car" route="E_W" depart="380" departLane="random" departSpeed="10" />
<vehicle id="W_E_383" type="standard_car" route="W_E" depart="383" departLane="random" departSpeed="10" />
<vehicle id="N_E_397" type="standard_car" route="N_E" depart="397" departLane="random" departSpeed="10" />
<vehicle id="W_E_404" type="standard_car" route="W_E" depart="404" departLane="random" departSpeed="10" />
<vehicle id="W_N_406" type="standard_car" route="W_N" depart="406" departLane="random" departSpeed="10" />
<vehicle id="N_S_415" type="standard_car" route="N_S" depart="415" departLane="random" departSpeed="10" />
<vehicle id="E_W_416" type="standard_car" route="E_W" depart="416" departLane="random" departSpeed="10" />
<vehicle id="N_S_423" type="standard_car" route="N_S" depart="423" departLane="random" departSpeed="10" />
<vehicle id="E_N_428" type="standard_car" route="E_N" depart="428" departLane="random" departSpeed="10" />
<vehicle id="N_E_428" type="standard_car" route="N_E" depart="428" departLane="random" departSpeed="10" />
<vehicle id="N_S_431" type="standard_car" route="N_S" depart="431" departLane="random" departSpeed="10" />
<vehicle id="N_E_445" type="standard_car" route="N_E" depart="445" departLane="random" departSpeed="10" />
<vehicle id="E_W_452" type="standard_car" route="E_W" depart="452" departLane="random" departSpeed="10" />
<vehicle id="W_S_454" type="standard_car" route="W_S" depart="454" departLane="random" departSpeed="10" />
<vehicle id="W_E_455" type="standard_car" route="W_E" depart="455" departLane="random" departSpeed="10" />
<vehicle id="W_E_466" type="standard_car" route="W_E" depart="466" departLane="random" departSpeed="10" />
<vehicle id="S_W_466" type="standard_car" route="S_W" depart="466" departLane="random" departSpeed="10" />
<vehicle id="S_E_467" type="standard_car" route="S_E" depart="467" departLane="random" departSpeed="10" />
<vehicle id="E_W_468" type="standard_car" route="E_W" depart="468" departLane="random" departSpeed="10" />
<vehicle id="E_N_469" type="standard_car" route="E_N" depart="469" departLane="random" departSpeed="10" />
<vehicle id="N_S_472" type="standard_car" route="N_S" depart="472" departLane="random" departSpeed="10" />
<vehicle id="S_N_472" type="standard_car" route="S_N" depart="472" departLane="random" departSpeed="10" />
<vehicle id="S_N_475" type="standard_car" route="S_N" depart="475" departLane="random" departSpeed="10" />
<vehicle id="E_W_476" type="standard_car" route="E_W" depart="476" departLane="random" departSpeed="10" />
<vehicle id="W_E_477" type="standard_car" route="W_E" depart="477" departLane="random" departSpeed="10" />
<vehicle id="N_W_479" type="standard_car" route="N_W" depart="479" departLane="random" departSpeed="10" />
<vehicle id="W_E_482" type="standard_car" route="W_E" depart="482" departLane="random" departSpeed="10" />
<vehicle id="S_N_488" type="standard_car" route="S_N" depart="488" departLane="random" departSpeed="10" />
<vehicle id="W_S_489" type="standard_car" route="W_S" depart="489" departLane="random" departSpeed="10" />
<vehicle id="E_N_490" type="standard_car" route="E_N" depart="490" departLane="random" departSpeed="10" />
<vehicle id="N_W_492" type="standard_car" route="N_W" depart="492" departLane="random" departSpeed="10" />
<vehicle id="N_W_494" type="standard_car" route="N_W" depart="494" departLane="random" departSpeed="10" />
<vehicle id="S_N_494" type="standard_car" route="S_N" depart="494" departLane="random" departSpeed="10" />
<vehicle id="N_S_506" type="standard_car" route="N_S" depart="506" departLane="random" departSpeed="10" />
<vehicle id="S_N_508" type="standard_car" route="S_N" depart="508" departLane="random" departSpeed="10" />
<vehicle id="W_E_509" type="standard_car" route="W_E" depart="509" departLane="random" departSpeed="10" />
<vehicle id="W_S_510" type="standard_car" route="W_S" depart="510" departLane="random" departSpeed="10" />
<vehicle id="E_W_511" type="standard_car" route="E_W" depart="511" departLane="random" departSpeed="10" />
<vehicle id="S_E_517" type="standard_car" route="S_E" depart="517" departLane="random" departSpeed="10" />
<vehicle id="S_E_518" type="standard_car" route="S_E" depart="518" departLane="random" departSpeed="10" />
<vehicle id="W_E_530" type="standard_car" route="W_E" depart="530" departLane="random" departSpeed="10" />
<vehicle id="W_E_535" type="standard_car" route="W_E" depart="535" departLane="random" departSpeed="10" />
<vehicle id="W_E_536" type="standard_car" route="W_E" depart="536" departLane="random" departSpeed="10" />
<vehicle id="S_E_542" type="standard_car" route="S_E" depart="542" departLane="random" departSpeed="10" />
<vehicle id="S_N_542" type="standard_car" route="S_N" depart="542" departLane="random" departSpeed="10" />
<vehicle id="E_W_545" type="standard_car" route="E_W" depart="545" departLane="random" departSpeed="10" />
<vehicle id="N_W_553" type="standard_car" route="N_W" depart="553" departLane="random" departSpeed="10" />
<vehicle id="S_W_557" type="standard_car" route="S_W" depart="557" departLane="random" departSpeed="10" />
<vehicle id="E_N_558" type="standard_car" route="E_N" depart="558" departLane="random" departSpeed="10" />
<vehicle id="N_W_559" type="standard_car" route="N_W" depart="559" departLane="random" departSpeed="10" />
<vehicle id="S_W_559" type="standard_car" route="S_W" depart="559" departLane="random" departSpeed="10" />
<vehicle id="N_W_562" type="standard_car" route="N_W" depart="562" departLane="random" departSpeed="10" />
<vehicle id="N_S_563" type="standard_car" route="N_S" depart="563" departLane="random" departSpeed="10" />
<vehicle id="E_W_565" type="standard_car" route="E_W" depart="565" departLane="random" departSpeed="10" />
<vehicle id="N_E_566" type="standard_car" route="N_E" depart="566" departLane="random" departSpeed="10" />
<vehicle id="S_N_566" type="standard_car" route="S_N" depart="566" departLane="random" departSpeed="10" />
<vehicle id="E_N_568" type="standard_car" route="E_N" depart="568" departLane="random" departSpeed="10" />
<vehicle id="S_E_569" type="standard_car" route="S_E" depart="569" departLane="random" departSpeed="10" />
<vehicle id="W_S_578" type="standard_car" route="W_S" depart="578" departLane="random" departSpeed="10" />
<vehicle id="N_S_583" type="standard_car" route="N_S" depart="583" departLane="random" departSpeed="10" />
<vehicle id="W_E_586" type="standard_car" route="W_E" depart="586" departLane="random" departSpeed="10" />
<vehicle id="N_S_589" type="standard_car" route="N_S" depart="589" departLane="random" departSpeed="10" />
<vehicle id="S_N_593" type="standard_car" route="S_N" depart="593" departLane="random" departSpeed="10" />
<vehicle id="E_W_595" type="standard_car" route="E_W" depart="595" departLane="random" departSpeed="10" />
<vehicle id="N_S_602" type="standard_car" route="N_S" depart="602" departLane="random" departSpeed="10" />
<vehicle id="W_E_605" type="standard_car" route="W_E" depart="605" departLane="random" departSpeed="10" />
<vehicle id="S_N_606" type="standard_car" route="S_N" depart="606" departLane="random" departSpeed="10" />
<vehicle id="S_E_610" type="standard_car" route="S_E" depart="610" departLane="random" departSpeed="10" />
<vehicle id="N_W_613" type="standard_car" route="N_W" depart="613" departLane="random" departSpeed="10" />
<vehicle id="S_N_616" type="standard_car" route="S_N" depart="616" departLane="random" departSpeed="10" />
<vehicle id="W_N_617" type="standard_car" route="W_N" depart="617" departLane="random" departSpeed="10" />
<vehicle id="S_N_617" type="standard_car" route="S_N" depart="617" departLane="random" departSpeed="10" />
<vehicle id="N_S_626" type="standard_car" route="N_S" depart="626" departLane="random" departSpeed="10" />
<vehicle id="N_S_627" type="standard_car" route="N_S" depart="627" departLane="random" departSpeed="10" />
<vehicle id="N_E_627" type="standard_car" route="N_E" depart="627" departLane="random" departSpeed="10" />
<vehicle id="E_N_633" type="standard_car" route="E_N" depart="633" departLane="random" departSpeed="10" />
<vehicle id="E_W_637" type="standard_car" route="E_W" depart="637" departLane="random" departSpeed="10" />
<vehicle id="W_E_638" type="standard_car" route="W_E" depart="638" departLane="random" departSpeed="10" />
<vehicle id="W_S_641" type="standard_car" route="W_S" depart="641" departLane="random" departSpeed="10" />
<vehicle id="W_E_643" type="standard_car" route="W_E" depart="643" departLane="random" departSpeed="10" />
<vehicle id="N_S_645" type="standard_car" route="N_S" depart="645" departLane="random" departSpeed="10" />
<vehicle id="W_E_648" type="standard_car" route="W_E" depart="648" departLane="random" departSpeed="10" />
<vehicle id="W_S_650" type="standard_car" route="W_S" depart="650" departLane="random" departSpeed="10" />
<vehicle id="N_S_651" type="standard_car" route="N_S" depart="651" departLane="random" departSpeed="10" />
<vehicle id="E_W_655" type="standard_car" route="E_W" depart="655" departLane="random" departSpeed="10" />
<vehicle id="W_S_656" type="standard_car" route="W_S" depart="656" departLane="random" departSpeed="10" />
<vehicle id="N_S_658" type="standard_car" route="N_S" depart="658" departLane="random" departSpeed="10" />
<vehicle id="N_S_659" type="standard_car" route="N_S" depart="659" departLane="random" departSpeed="10" />
<vehicle id="N_S_660" type="standard_car" route="N_S" depart="660" departLane="random" departSpeed="10" />
<vehicle id="S_N_661" type="standard_car" route="S_N" depart="661" departLane="random" departSpeed="10" />
<vehicle id="E_W_668" type="standard_car" route="E_W" depart="668" departLane="random" departSpeed="10" />
<vehicle id="S_N_672" type="standard_car" route="S_N" depart="672" departLane="random" departSpeed="10" />
<vehicle id="W_E_675" type="standard_car" route="W_E" depart="675" departLane="random" departSpeed="10" />
<vehicle id="N_S_676" type="standard_car" route="N_S" depart="676" departLane="random" departSpeed="10" />
<vehicle id="S_E_676" type="standard_car" route="S_E" depart="676" departLane="random" departSpeed="10" />
<vehicle id="N_S_680" type="standard_car" route="N_S" depart="680" departLane="random" departSpeed="10" />
<vehicle id="S_N_681" type="standard_car" route="S_N" depart="681" departLane="random" departSpeed="10" />
<vehicle id="W_E_682" type="standard_car" route="W_E" depart="682" departLane="random" departSpeed="10" />
<vehicle id="W_E_683" type="standard_car" route="W_E" depart="683" departLane="random" departSpeed="10" />
<vehicle id="N_S_686" type="standard_car" route="N_S" depart="686" departLane="random" departSpeed="10" />
<vehicle id="S_N_688" type="standard_car" route="S_N" depart="688" departLane="random" departSpeed="10" />
<vehicle id="W_E_693" type="standard_car" route="W_E" depart="693" departLane="random" departSpeed="10" />
<vehicle id="W_E_694" type="standard_car" route="W_E" depart="694" departLane="random" departSpeed="10" />
<vehicle id="E_W_697" type="standard_car" route="E_W" depart="697" departLane="random" departSpeed="10" />
<vehicle id="N_S_698" type="standard_car" route="N_S" depart="698" departLane="random" departSpeed="10" />
<vehicle id="S_N_701" type="standard_car" route="S_N" depart="701" departLane="random" departSpeed="10" />
<vehicle id="W_E_702" type="standard_car" route="W_E" depart="702" departLane="random" departSpeed="10" />
<vehicle id="N_S_707" type="standard_car" route="N_S" depart="707" departLane="random" departSpeed="10" />
<vehicle id="S_W_708" type="standard_car" route="S_W" depart="708" departLane="random" departSpeed="10" />
<vehicle id="E_W_712" type="standard_car" route="E_W" depart="712" departLane="random" departSpeed="10" />
<vehicle id="W_S_713" type="standard_car" route="W_S" depart="713" departLane="random" departSpeed="10" />
<vehicle id="N_S_719" type="standard_car" route="N_S" depart="719" departLane="random" departSpeed="10" />
<vehicle id="S_E_720" type="standard_car" route="S_E" depart="720" departLane="random" departSpeed="10" />
<vehicle id="E_W_721" type="standard_car" route="E_W" depart="721" departLane="random" departSpeed="10" />
<vehicle id="E_W_726" type="standard_car" route="E_W" depart="726" departLane="random" departSpeed="10" />
<vehicle id="S_E_726" type="standard_car" route="S_E" depart="726" departLane="random" departSpeed="10" />
<vehicle id="E_N_727" type="standard_car" route="E_N" depart="727" departLane="random" departSpeed="10" />
<vehicle id="S_N_730" type="standard_car" route="S_N" depart="730" departLane="random" departSpeed="10" />
<vehicle id="W_E_732" type="standard_car" route="W_E" depart="732" departLane="random" departSpeed="10" />
<vehicle id="N_W_735" type="standard_car" route="N_W" depart="735" departLane="random" departSpeed="10" />
<vehicle id="W_E_736" type="standard_car" route="W_E" depart="736" departLane="random" departSpeed="10" />
<vehicle id="S_N_738" type="standard_car" route="S_N" depart="738" departLane="random" departSpeed="10" />
<vehicle id="W_E_742" type="standard_car" route="W_E" depart="742" departLane="random" departSpeed="10" />
<vehicle id="E_N_743" type="standard_car" route="E_N" depart="743" departLane="random" departSpeed="10" />
<vehicle id="W_E_755" type="standard_car" route="W_E" depart="755" departLane="random" departSpeed="10" />
<vehicle id="W_E_759" type="standard_car" route="W_E" depart="759" departLane="random" departSpeed="10" />
<vehicle id="N_S_768" type="standard_car" route="N_S" depart="768" departLane="random" departSpeed="10" />
<vehicle id="S_N_772" type="standard_car" route="S_N" depart="772" departLane="random" departSpeed="10" />
<vehicle id="S_N_782" type="standard_car" route="S_N" depart="782" departLane="random" departSpeed="10" />
<vehicle id="E_W_783" type="standard_car" route="E_W" depart="783" departLane="random" departSpeed="10" />
<vehicle id="N_S_789" type="standard_car" route="N_S" depart="789" departLane="random" departSpeed="10" />
<vehicle id="W_E_793" type="standard_car" route="W_E" depart="793" departLane="random" departSpeed="10" />
<vehicle id="S_E_794" type="standard_car" route="S_E" depart="794" departLane="random" departSpeed="10" />
<vehicle id="N_S_796" type="standard_car" route="N_S" depart="796" departLane="random" departSpeed="10" />
<vehicle id="E_W_800" type="standard_car" route="E_W" depart="800" departLane="random" departSpeed="10" />
<vehicle id="E_S_800" type="standard_car" route="E_S" depart="800" departLane="random" departSpeed="10" />
<vehicle id="S_E_804" type="standard_car" route="S_E" depart="804" departLane="random" departSpeed="10" />
<vehicle id="N_S_805" type="standard_car" route="N_S" depart="805" departLane="random" departSpeed="10" />
<vehicle id="S_E_806" type="standard_car" route="S_E" depart="806" departLane="random" departSpeed="10" />
<vehicle id="N_S_808" type="standard_car" route="N_S" depart="808" departLane="random" departSpeed="10" />
<vehicle id="S_N_809" type="standard_car" route="S_N" depart="809" departLane="random" departSpeed="10" />
<vehicle id="N_S_810" type="standard_car" route="N_S" depart="810" departLane="random" departSpeed="10" />
<vehicle id="E_S_812" type="standard_car" route="E_S" depart="812" departLane="random" departSpeed="10" />
<vehicle id="W_S_813" type="standard_car" route="W_S" depart="813" departLane="random" departSpeed="10" />
<vehicle id="W_E_815" type="standard_car" route="W_E" depart="815" departLane="random" departSpeed="10" />
<vehicle id="N_S_816" type="standard_car" route="N_S" depart="816" departLane="random" departSpeed="10" />
<vehicle id="E_W_824" type="standard_car" route="E_W" depart="824" departLane="random" departSpeed="10" />
<vehicle id="W_N_824" type="standard_car" route="W_N" depart="824" departLane="random" departSpeed="10" />