<routes> 
<vType accel="1.0" decel="4.5" id="standard_car" length="5.0" minGap="2.5" maxSpeed="25" sigma="0.5" />
<route id="E_N" edges="1i 2o"/>
<route id="E_W" edges="1i 3o"/>
<route id="E_S" edges="1i 4o"/>
<route id="N_W" edges="2i 3o"/>
<route id="N_S" edges="2i 4o"/>
<route id="N_E" edges="2i 1o"/>
<route id="W_S" edges="3i 4o"/>
<route id="W_E" edges="3i 1o"/>
<route id="W_N" edges="3i 2o"/>
<route id="S_E" edges="4i 1o"/>
<route id="S_N" edges="4i 2o"/>
<route id="S_W" edges="4i 3o"/>
<vehicle id="S_N_2" type="standard_car" route="S_N" depart="2" departLane="random" departSpeed="10" />
<vehicle id="S_N_14" type="standard_car" route="S_N" depart="14" departLane="random" departSpeed="10" />
<vehicle id="W_S_16" type="standard_car" route="W_S" depart="16" departLane="random" departSpeed="10" />
<vehicle id="E_W_18" type="standard_car" route="E_W" depart="18" departLane="random" departSpeed="10" />
<vehicle id="S_E_20" type="standard_car" route="S_E" depart="20" departLane="random" departSpeed="10" />
<vehicle id="W_S_24" type="standard_car" route="W_S" depart="24" departLane="random" departSpeed="10" />
<vehicle id="S_N_26" type="standard_car" route="S_N" depart="26" departLane="random" departSpeed="10" />
<vehicle id="E_W_31" type="standard_car" route="E_W" depart="31" departLane="random" departSpeed="10" />
<vehicle id="N_S_32" type="standard_car" route="N_S" depart="32" departLane="random" departSpeed="10" />
<vehicle id="S_N_33" type="standard_car" route="S_N" depart="33" departLane="random" departSpeed="10" />
<vehicle id="N_S_35" type="standard_car" route="N_S" depart="35" departLane="random" departSpeed="10" />
<vehicle id="S_N_35" type="standard_car" route="S_N" depart="35" departLane="random" departSpeed="10" />
<vehicle id="N_S_40" type="standard_car" route="N_S" depart="40" departLane="random" departSpeed="10" />
<vehicle id="S_E_43" type="standard_car" route="S_E" depart="43" departLane="random" departSpeed="10" />
<vehicle id="S_N_43" type="standard_car" route="S_N" depart="43" departLane="random" departSpeed="10" />
<vehicle id="S_E_49" type="standard_car" route="S_E" depart="49" departLane="random" departSpeed="10" />
<vehicle id="W_S_51" type="standard_car" route="W_S" depart="51" departLane="random" departSpeed="10" />
<vehicle id="S_N_53" type="standard_car" route="S_N" depart="53" departLane="random" departSpeed="10" />
<vehicle id="E_W_57" type="standard_car" route="E_W" depart="57" departLane="random" departSpeed="10" />
<vehicle id="W_S_62" type="standard_car" route="W_S" depart="62" departLane="random" departSpeed="10" />
<vehicle id="E_W_64" type="standard_car" route="E_W" depart="64" departLane="random" departSpeed="10" />
<vehicle id="E_N_67" type="standard_car" route="E_N" depart="67" departLane="random" departSpeed="10" />
<vehicle id="W_E_67" type="standard_car" route="W_E" depart="67" departLane="random" departSpeed="10" />
<vehicle id="E_W_73" type="standard_car" route="E_W" depart="73" departLane="random" departSpeed="10" />
<vehicle id="S_E_74" type="standard_car" route="S_E" depart="74" departLane="random" departSpeed="10" />
<vehicle id="E_S_77" type="standard_car" route="E_S" depart="77" departLane="random" departSpeed="10" />
<vehicle id="W_E_80" type="standard_car" route="W_E" depart="80" departLane="random" departSpeed="10" />
<vehicle id="N_S_81" type="standard_car" route="N_S" depart="81" departLane="random" departSpeed="10" />
<vehicle id="E_W_84" type="standard_car" route="E_W" depart="84" departLane="random" departSpeed="10" />
<vehicle id="W_E_85" type="standard_car" route="W_E" depart="85" departLane="random" departSpeed="10" />
<vehicle id="S_E_86" type="standard_car" route="S_E" depart="86" departLane="random" departSpeed="10" />
<vehicle id="W_S_87" type="standard_car" route="W_S" depart="87" departLane="random" departSpeed="10" />
<vehicle id="S_W_88" type="standard_car" route="S_W" depart="88" departLane="random" departSpeed="10" />
<vehicle id="N_S_90" type="standard_car" route="N_S" depart="90" departLane="random" departSpeed="10" />
<vehicle id="W_E_98" type="standard_car" route="W_E" depart="98" departLane="random" departSpeed="10" />
<vehicle id="E_W_100" type="standard_car" route="E_W" depart="100" departLane="random" departSpeed="10" />
<vehicle id="N_W_101" type="standard_car" route="N_W" depart="101" departLane="random" departSpeed="10" />
<vehicle id="E_N_108" type="standard_car" route="E_N" depart="108" departLane="random" departSpeed="10" />
<vehicle id="W_S_111" type="standard_car" route="W_S" depart="111" departLane="random" departSpeed="10" />
<vehicle id="E_W_112" type="standard_car" route="E_W" depart="112" departLane="random" departSpeed="10" />
<vehicle id="N_S_115" type="standard_car" route="N_S" depart="115" departLane="random" departSpeed="10" />
<vehicle id="E_W_116" type="standard_car" route="E_W" depart="116" departLane="random" departSpeed="10" />
<vehicle id="N_S_118" type="standard_car" route="N_S" depart="118" departLane="random" departSpeed="10" />
<vehicle id="E_N_120" type="standard_car" route="E_N" depart="120" departLane="random" departSpeed="10" />
<vehicle id="N_W_127" type="standard_car" route="N_W" depart="127" departLane="random" departSpeed="10" />
<vehicle id="E_N_128" type="standard_car" route="E_N" depart="128" departLane="random" departSpeed="10" />
<vehicle id="S_N_129" type="standard_car" route="S_N" depart="129" departLane="random" departSpeed="10" />
<vehicle id="S_N_134" type="standard_car" route="S_N" depart="134" departLane="random" departSpeed="10" />
<vehicle id="E_N_137" type="standard_car" route="E_N" depart="137" departLane="random" departSpeed="10" />
<vehicle id="E_W_137" type="standard_car" route="E_W" depart="137" departLane="random" departSpeed="10" />
<vehicle id="S_N_137" type="standard_car" route="S_N" depart="137" departLane="random" departSpeed="10" />
<vehicle id="N_W_139" type="standard_car" route="N_W" depart="139" departLane="random" departSpeed="10" />
<vehicle id="N_S_143" type="standard_car" route="N_S" depart="143" departLane="random" departSpeed="10" />
<vehicle id="W_E_143" type="standard_car" route="W_E" depart="143" departLane="random" departSpeed="10" />
<vehicle id="S_N_143" type="standard_car" route="S_N" depart="143" departLane="random" departSpeed="10" />
<vehicle id="N_S_148" type="standard_car" route="N_S" depart="148" departLane="random" departSpeed="10" />
<vehicle id="W_N_154" type="standard_car" route="W_N" depart="154" departLane="random" departSpeed="10" />
<vehicle id="W_E_157" type="standard_car" route="W_E" depart="157" departLane="random" departSpeed="10" />
<vehicle id="E_N_160" type="standard_car" route="E_N" depart="160" departLane="random" departSpeed="10" />
<vehicle id="N_S_161" type="standard_car" route="N_S" depart="161" departLane="random" departSpeed="10" />
<vehicle id="N_S_166" type="standard_car" route="N_S" depart="166" departLane="random" departSpeed="10" />
<vehicle id="W_E_176" type="standard_car" route="W_E" depart="176" departLane="random" departSpeed="10" />
<vehicle id="S_E_177" type="standard_car" route="S_E" depart="177" departLane="random" departSpeed="10" />
<vehicle id="W_E_183" type="standard_car" route="W_E" depart="183" departLane="random" departSpeed="10" />
<vehicle id="E_N_187" type="standard_car" route="E_N" depart="187" departLane="random" departSpeed="10" />
<vehicle id="W_E_201" type="standard_car" route="W_E" depart="201" departLane="random" departSpeed="10" />
<vehicle id="N_S_206" type="standard_car" route="N_S" depart="206" departLane="random" departSpeed="10" />
<vehicle id="E_W_208" type="standard_car" route="E_W" depart="208" departLane="random" departSpeed="10" />
<vehicle id="N_S_208" type="standard_car" route="N_S" depart="208" departLane="random" departSpeed="10" />
<vehicle id="E_W_216" type="standard_car" route="E_W" depart="216" departLane="random" departSpeed="10" />
<vehicle id="S_W_216" type="standard_car" route="S_W" depart="216" departLane="random" departSpeed="10" />
<vehicle id="N_E_217" type="standard_car" route="N_E" depart="217" departLane="random" departSpeed="10" />
<vehicle id="N_S_226" type="standard_car" route="N_S" depart="226" departLane="random" departSpeed="10" />
<vehicle id="S_N_227" type="standard_car" route="S_N" depart="227" departLane="random" departSpeed="10" />
<vehicle id="N_S_229" type="standard_car" route="N_S" depart="229" departLane="random" departSpeed="10" />
<vehicle id="E_W_234" type="standard_car" route="E_W" depart="234" departLane="random" departSpeed="10" />
<vehicle id="S_W_234" type="standard_car" route="S_W" depart="234" departLane="random" departSpeed="10" />
<vehicle id="S_W_240" type="standard_car" route="S_W" depart="240" departLane="random" departSpeed="10" />
<vehicle id="E_W_243" type="standard_car" route="E_W" depart="243" departLane="random" departSpeed="10" />
<vehicle id="S_N_246" type="standard_car" route="S_N" depart="246" departLane="random" departSpeed="10" />
<vehicle id="N_S_247" type="standard_car" route="N_S" depart="247" departLane="random" departSpeed="10" />
<vehicle id="N_W_252" type="standard_car" route="N_W" depart="252" departLane="random" departSpeed="10" />
<vehicle id="E_W_255" type="standard_car" route="E_W" depart="255" departLane="random" departSpeed="10" />
<vehicle id="N_W_263" type="standard_car" route="N_W" depart="263" departLane="random" departSpeed="10" />
<vehicle id="S_E_263" type="standard_car" route="S_E" depart="263" departLane="random" departSpeed="10" />
<vehicle id="N_E_274" type="standard_car" route="N_E" depart="274" departLane="random" departSpeed="10" />
<vehicle id="E_W_276" type="standard_car" route="E_W" depart="276" departLane="random" departSpeed="10" />
<vehicle id="W_S_278" type="standard_car" route="W_S" depart="278" departLane="random" departSpeed="10" />
<vehicle id="S_W_278" type="standard_car" route="S_W" depart="278" departLane="random" departSpeed="10" />
<vehicle id="S_N_279" type="standard_car" route="S_N" depart="279" departLane="random" departSpeed="10" />
<vehicle id="N_S_280" type="standard_car" route="N_S" depart="280" departLane="random" departSpeed="10" />
<vehicle id="N_W_283" type="standard_car" route="N_W" depart="283" departLane="random" departSpeed="10" />
<vehicle id="S_E_286" type="standard_car" route="S_E" depart="286" departLane="random" departSpeed="10" />
<vehicle id="S_N_290" type="standard_car" route="S_N" depart="290" departLane="random" departSpeed="10" />
<vehicle id="N_S_293" type="standard_car" route="N_S" depart="293" departLane="random" departSpeed="10" />
<vehicle id="E_W_300" type="standard_car" route="E_W" depart="300" departLane="random" departSpeed="10" />
<vehicle id="N_W_301" type="standard_car" route="N_W" depart="301" departLane="random" departSpeed="10" />
<vehicle id="N_S_307" type="standard_car" route="N_S" depart="307" departLane="random" departSpeed="10" />
<vehicle id="E_N_312" type="standard_car" route="E_N" depart="312" departLane="random" departSpeed="10" />
<vehicle id="E_W_313" type="standard_car" route="E_W" depart="313" departLane="random" departSpeed="10" />
<vehicle id="S_N_317" type="standard_car" route="S_N" depart="317" departLane="random" departSpeed="10" />
<vehicle id="S_W_320" type="standard_car" route="S_W" depart="320" departLane="random" departSpeed="10" />
<vehicle id="E_W_328" type="standard_car" route="E_W" depart="328" departLane="random" departSpeed="10" />
<vehicle id="W_E_329" type="standard_car" route="W_E" depart="329" departLane="random" departSpeed="10" />
<vehicle id="E_W_336" type="standard_car" route="E_W" depart="336" departLane="random" departSpeed="10" />
<vehicle id="E_N_341" type="standard_car" route="E_N" depart="341" departLane="random" departSpeed="10" />
<vehicle id="S_W_348" type="standard_car" route="S_W" depart="348" departLane="random" departSpeed="10" />
<vehicle id="N_S_349" type="standard_car" route="N_S" depart="349" departLane="random" departSpeed="10" />
<vehicle id="S_E_349" type="standard_car" route="S_E" depart="349" departLane="random" departSpeed="10" />
<vehicle id="S_N_354" type="standard_car" route="S_N" depart="354" departLane="random" departSpeed="10" />
<vehicle id="S_N_357" type="standard_car" route="S_N" depart="357" departLane="random" departSpeed="10" />
<vehicle id="N_E_358" type="standard_car" route="N_E" depart="358" departLane="random" departSpeed="10" />
<vehicle id="W_S_364" type="standard_car" route="W_S" depart="364" departLane="random" departSpeed="10" />
<vehicle id="S_N_364" type="standard_car" route="S_N" depart="364" departLane="random" departSpeed="10" />
<vehicle id="S_N_365" type="standard_car" route="S_N" depart="365" departLane="random" departSpeed="10" />
<vehicle id="S_E_367" type="standard_car" route="S_E" depart="367" departLane="random" departSpeed="10" />
<vehicle id="S_N_368" type="standard_car" route="S_N" depart="368" departLane="random" departSpeed="10" />
<vehicle id="W_N_370" type="standard_car" route="W_N" depart="370" departLane="random" departSpeed="10" />
<vehicle id="E_W_378" type="standard_car" route="E_W" depart="378" departLane="random" departSpeed="10" />
<vehicle id="N_S_378" type="standard_car" route="N_S" depart="378" departLane="random" departSpeed="10" />
<vehicle id="W_E_379" type="standard_car" route="W_E" depart="379" departLane="random" departSpeed="10" />
<vehicle id="N_S_380" type="standard_car" route="N_S" depart="380" departLane="random" departSpeed="10" />
<vehicle id="S_N_383" type="standard_car" route="S_N" depart="383" departLane="random" departSpeed="10" />
<vehicle id="S_N_387" type="standard_car" route="S_N" depart="387" departLane="random" departSpeed="10" />
<vehicle id="S_E_391" type="standard_car" route="S_E" depart="391" departLane="random" departSpeed="10" />
<vehicle id="E_W_393" type="standard_car" route="E_W" depart="393" departLane="random" departSpeed="10" />
<vehicle id="S_N_393" type="standard_car" route="S_N" depart="393" departLane="random" departSpeed="10" />
<vehicle id="N_S_401" type="standard_car" route="N_S" depart="401" departLane="random" departSpeed="10" />
<vehicle id="S_N_402" type="standard_car" route="S_N" depart="402" departLane="random" departSpeed="10" />
<vehicle id="E_W_404" type="standard_car" route="E_W" depart="404" departLane="random" departSpeed="10" />
<vehicle id="E_W_417" type="standard_car" route="E_W" depart="417" departLane="random" departSpeed="10" />
<vehicle id="E_W_418" type="standard_car" route="E_W" depart="418" departLane="random" departSpeed="10" />
<vehicle id="E_W_419" type="standard_car" route="E_W" depart="419" departLane="random" departSpeed="10" />
<vehicle id="S_W_425" type="standard_car" route="S_W" depart="425" departLane="random" departSpeed="10" />
<vehicle id="E_W_433" type="standard_car" route="E_W" depart="433" departLane="random" departSpeed="10" />
<vehicle id="W_E_433" type="standard_car" route="W_E" depart="433" departLane="random" departSpeed="10" />
<vehicle id="N_W_438" type="standard_car" route="N_W" depart="438" departLane="random" departSpeed="10" />
<vehicle id="W_E_440" type="standard_car" route="W_E" depart="440" departLane="random" departSpeed="10" />
<vehicle id="E_W_443" type="standard_car" route="E_W" depart="443" departLane="random" departSpeed="10" />
<vehicle id="W_E_443" type="standard_car" route="W_E" depart="443" departLane="random" departSpeed="10" />
<vehicle id="S_W_445" type="standard_car" route="S_W" depart="445" departLane="random" departSpeed="10" />
<vehicle id="N_W_446" type="standard_car" route="N_W" depart="446" departLane="random" departSpeed="10" />
<vehicle id="W_N_448" type="standard_car" route="W_N" depart="448" departLane="random" departSpeed="10" />
<vehicle id="S_E_452" type="standard_car" route="S_E" depart="452" departLane="random" departSpeed="10" />
<vehicle id="E_W_455" type="standard_car" route="E_W" depart="455" departLane="random" departSpeed="10" />
<vehicle id="S_N_465" type="standard_car" route="S_N" depart="465" departLane="random" departSpeed="10" />
<vehicle id="E_W_468" type="standard_car" route="E_W" depart="468" departLane="random" departSpeed="10" />
<vehicle id="W_E_470" type="standard_car" route="W_E" depart="470" departLane="random" departSpeed="10" />
<vehicle id="S_W_472" type="standard_car" route="S_W" depart="472" departLane="random" departSpeed="10" />
<vehicle id="E_W_482" type="standard_car" route="E_W" depart="482" departLane="random" departSpeed="10" />
<vehicle id="N_S_486" type="standard_car" route="N_S" depart="486" departLane="random" departSpeed="10" />
<vehicle id="W_E_486" type="standard_car" route="W_E" depart="486" departLane="random" departSpeed="10" />
<vehicle id="W_N_486" type="standard_car" route="W_N" depart="486" departLane="random" departSpeed="10" />
<vehicle id="S_N_492" type="standard_car" route="S_N" depart="492" departLane="random" departSpeed="10" />
<vehicle id="N_S_497" type="standard_car" route="N_S" depart="497" departLane="random" departSpeed="10" />
<vehicle id="W_S_498" type="standard_car" route="W_S" depart="498" departLane="random" departSpeed="10" />
<vehicle id="S_N_509" type="standard_car" route="S_N" depart="509" departLane="random" departSpeed="10" />
<vehicle id="W_E_512" type="standard_car" route="W_E" depart="512" departLane="random" departSpeed="10" />
<vehicle id="W_S_516" type="standard_car" route="W_S" depart="516" departLane="random" departSpeed="10" />
<vehicle id="E_W_517" type="standard_car" route="E_W" depart="517" departLane="random" departSpeed="10" />
<vehicle id="N_W_518" type="standard_car" route="N_W" depart="518" departLane="random" departSpeed="10" />
<vehicle id="W_E_520" type="standard_car" route="W_E" depart="520" departLane="random" departSpeed="10" />
<vehicle id="S_E_520" type="standard_car" route="S_E" depart="520" departLane="random" departSpeed="10" />
<vehicle id="E_W_526" type="standard_car" route="E_W" depart="526" departLane="random" departSpeed="10" />
<vehicle id="N_S_526" type="standard_car" route="N_S" depart="526" departLane="random" departSpeed="10" />
<vehicle id="S_E_529" type="standard_car" route="S_E" depart="529" departLane="random" departSpeed="10" />
<vehicle id="N_S_536" type="standard_car" route="N_S" depart="536" departLane="random" departSpeed="10" />
<vehicle id="W_S_536" type="standard_car" route="W_S" depart="536" departLane="random" departSpeed="10" />
<vehicle id="S_N_537" type="standard_car" route="S_N" depart="537" departLane="random" departSpeed="10" />
<vehicle id="N_S_545" type="standard_car" route="N_S" depart="545" departLane="random" departSpeed="10" />
<vehicle id="E_W_550" type="standard_car" route="E_W" depart="550" departLane="random" departSpeed="10" />
<vehicle id="S_N_552" type="standard_car" route="S_N" depart="552" departLane="random" departSpeed="10" />
<vehicle id="S_N_554" type="standard_car" route="S_N" depart="554" departLane="random" departSpeed="10" />
<vehicle id="N_S_558" type="standard_car" route="N_S" depart="558" departLane="random" departSpeed="10" />
<vehicle id="W_S_559" type="standard_car" route="W_S" depart="559" departLane="random" departSpeed="10" />
<vehicle id="S_N_559" type="standard_car" route="S_N" depart="559" departLane="random" departSpeed="10" />
<vehicle id="N_E_561" type="standard_car" route="N_E" depart="561" departLane="random" departSpeed="10" />
<vehicle id="S_N_561" type="standard_car" route="S_N" depart="561" departLane="random" departSpeed="10" />
<vehicle id="E_N_567" type="standard_car" route="E_N" depart="567" departLane="random" departSpeed="10" />
<vehicle id="S_E_567" type="standard_car" route="S_E" depart="567" departLane="random" departSpeed="10" />
<vehicle id="E_W_571" type="standard_car" route="E_W" depart="571" departLane="random" departSpeed="10" />
<vehicle id="E_W_575" type="standard_car" route="E_W" depart="575" departLane="random" departSpeed="10" />
<vehicle id="S_N_578" type="standard_car" route="S_N" depart="578" departLane="random" departSpeed="10" />
<vehicle id="S_W_580" type="standard_car" route="S_W" depart="580" departLane="random" departSpeed="10" />
<vehicle id="S_E_586" type="standard_car" route="S_E" depart="586" departLane="random" departSpeed="10" />
<vehicle id="N_W_589" type="standard_car" route="N_W" depart="589" departLane="random" departSpeed="10" />
<vehicle id="S_N_594" type="standard_car" route="S_N" depart="594" departLane="random" departSpeed="10" />
<vehicle id="E_W_596" type="standard_car" route="E_W" depart="596" departLane="random" departSpeed="10" />
<vehicle id="N_S_602" type="standard_car" route="N_S" depart="602" departLane="random" departSpeed="10" />
<vehicle id="S_N_605" type="standard_car" route="S_N" depart="605" departLane="random" departSpeed="10" />
<vehicle id="S_W_605" type="standard_car" route="S_W" depart="605" departLane="random" departSpeed="10" />
<vehicle id="E_N_606" type="standard_car" route="E_N" depart="606" departLane="random" departSpeed="10" />
<vehicle id="N_W_607" type="standard_car" route="N_W" depart="607" departLane="random" departSpeed="10" />
<vehicle id="W_E_607" type="standard_car" route="W_E" depart="607" departLane="random" departSpeed="10" />
<vehicle id="E_N_608" type="standard_car" route="E_N" depart="608" departLane="random" departSpeed="10" />
<vehicle id="E_W_611" type="standard_car" route="E_W" depart="611" departLane="random" departSpeed="10" />
<vehicle id="W_E_612" type="standard_car" route="W_E" depart="612" departLane="random" departSpeed="10" />
<vehicle id="S_N_613" type="standard_car" route="S_N" depart="613" departLane="random" departSpeed="10" />
<vehicle id="S_E_614" type="standard_car" route="S_E" depart="614" departLane="random" departSpeed="10" />
<vehicle id="E_W_615" type="standard_car" route="E_W" depart="615" departLane="random" departSpeed="10" />
<vehicle id="E_W_624" type="standard_car" route="E_W" depart="624" departLane="random" departSpeed="10" />
<vehicle id="E_S_626" type="standard_car" route="E_S" depart="626" departLane="random" departSpeed="10" />
<vehicle id="E_N_627" type="standard_car" route="E_N" depart="627" departLane="random" departSpeed="10" />
<vehicle id="W_E_628" type="standard_car" route="W_E" depart="628" departLane="random" departSpeed="10" />
<vehicle id="S_N_628" type="standard_car" route="S_N" depart="628" departLane="random" departSpeed="10" />
<vehicle id="S_N_638" type="standard_car" route="S_N" depart="638" departLane="random" departSpeed="10" />
<vehicle id="E_W_643" type="standard_car" route="E_W" depart="643" departLane="random" departSpeed="10" />
<vehicle id="W_N_645" type="standard_car" route="W_N" depart="645" departLane="random" departSpeed="10" />
<vehicle id="W_E_648" type="standard_car" route="W_E" depart="648" departLane="random" departSpeed="10" />
<vehicle id="W_E_650" type="standard_car" route="W_E" depart="650" departLane="random" departSpeed="10" />
<vehicle id="W_E_652" type="standard_car" route="W_E" depart="652" departLane="random" departSpeed="10" />
<vehicle id="E_W_657" type="standard_car" route="E_W" depart="657" departLane="random" departSpeed="10" />
<vehicle id="W_E_658" type="standard_car" route="W_E" depart="658" departLane="random" departSpeed="10" />
<vehicle id="W_S_660" type="standard_car" route="W_S" depart="660" departLane="random" departSpeed="10" />
<vehicle id="E_W_661" type="standard_car" route="E_W" depart="661" departLane="random" departSpeed="10" />
<vehicle id="N_S_667" type="standard_car" route="N_S" depart="667" departLane="random" departSpeed="10" />
<vehicle id="E_W_671" type="standard_car" route="E_W" depart="671" departLane="random" departSpeed="10" />
<vehicle id="W_E_681" type="standard_car" route="W_E" depart="681" departLane="random" departSpeed="10" />
<vehicle id="N_W_682" type="standard_car" route="N_W" depart="682" departLane="random" departSpeed="10" />
<vehicle id="S_N_683" type="standard_car" route="S_N" depart="683" departLane="random" departSpeed="10" />
<vehicle id="S_N_684" type="standard_car" route="S_N" depart="684" departLane="random" departSpeed="10" />
<vehicle id="E_W_688" type="standard_car" route="E_W" depart="688" departLane="random" departSpeed="10" />
<vehicle id="N_S_691" type="standard_car" route="N_S" depart="691" departLane="random" departSpeed="10" />
<vehicle id="S_E_692" type="standard_car" route="S_E" depart="692" departLane="random" departSpeed="10" />
<vehicle id="S_N_694" type="standard_car" route="S_N" depart="694" departLane="random" departSpeed="10" />
<vehicle id="E_N_697" type="standard_car" route="E_N" depart="697" departLane="random" departSpeed="10" />
<vehicle id="S_N_701" type="standard_car" route="S_N" depart="701" departLane="random" departSpeed="10" />
<vehicle id="N_S_702" type="standard_car" route="N_S" depart="702" departLane="random" departSpeed="10" />
<vehicle id="S_E_706" type="standard_car" route="S_E" depart="706" departLane="random" departSpeed="10" />
<vehicle id="E_W_709" type="standard_car" route="E_W" depart="709" departLane="random" departSpeed="10" />
<vehicle id="N_S_712" type="standard_car" route="N_S" depart="712" departLane="random" departSpeed="10" />
<vehicle id="S_N_714" type="standard_car" route="S_N" depart="714" departLane="random" departSpeed="10" />
<vehicle id="N_S_721" type="standard_car" route="N_S" depart="721" departLane="random" departSpeed="10" />
<vehicle id="S_E_724" type="standard_car" route="S_E" depart="724" departLane="random" departSpeed="10" />
<vehicle id="S_N_725" type="standard_car" route="S_N" depart="725" departLane="random" departSpeed="10" />
<vehicle id="S_W_729" type="standard_car" route="S_W" depart="729" departLane="random" departSpeed="10" />
<vehicle id="E_W_730" type="standard_car" route="E_W" depart="730" departLane="random" departSpeed="10" />
<vehicle id="N_S_730" type="standard_car" route="N_S" depart="730" departLane="random" departSpeed="10" />
<vehicle id="S_N_732" type="standard_car" route="S_N" depart="732" departLane="random" departSpeed="10" />
<vehicle id="E_S_735" type="standard_car" route="E_S" depart="735" departLane="random" departSpeed="10" />
<vehicle id="N_W_736" type="standard_car" route="N_W" depart="736" departLane="random" departSpeed="10" />
<vehicle id="N_S_736" type="standard_car" route="N_S" depart="736" departLane="random" departSpeed="10" />
<vehicle id="S_W_737" type="standard_car" route="S_W" depart="737" departLane="random" departSpeed="10" />
<vehicle id="S_N_742" type="standard_car" route="S_N" depart="742" departLane="random" departSpeed="10" />
<vehicle id="S_N_743" type="standard_car" route="S_N" depart="743" departLane="random" departSpeed="10" />
<vehicle id="S_N_746" type="standard_car" route="S_N" depart="746" departLane="random" departSpeed="10" />
<vehicle id="N_W_750" type="standard_car" route="N_W" depart="750" departLane="random" departSpeed="10" />
<vehicle id="S_W_754" type="standard_car" route="S_W" depart="754" departLane="random" departSpeed="10" />
<vehicle id="W_E_756" type="standard_car" route="W_E" depart="756" departLane="random" departSpeed="10" />
<vehicle id="W_E_759" type="standard_car" route="W_E" depart="759" departLane="random" departSpeed="10" />
<vehicle id="S_E_761" type="standard_car" route="S_E" depart="761" departLane="random" departSpeed="10" />
<vehicle id="E_N_762" type="standard_car" route="E_N" depart="762" departLane="random" departSpeed="10" />
<vehicle id="N_W_762" type="standard_car" route="N_W" depart="762" departLane="random" departSpeed="10" />
<vehicle id="E_N_763" type="standard_car" route="E_N" depart="763" departLane="random" departSpeed="10" />
<vehicle id="E_W_763" type="standard_car" route="E_W" depart="763" departLane="random" departSpeed="10" />
<vehicle id="S_N_763" type="standard_car" route="S_N" depart="763" departLane="random" departSpeed="10" />
<vehicle id="S_N_765" type="standard_car" route="S_N" depart="765" departLane="random" departSpeed="10" />
<vehicle id="W_E_767" type="standard_car" route="W_E" depart="767" departLane="random" departSpeed="10" />
<vehicle id="S_N_771" type="standard_car" route="S_N" depart="771" departLane="random" departSpeed="10" />
<vehicle id="E_W_773" type="standard_car" route="E_W" depart="773" departLane="random" departSpeed="10" />
<vehicle id="N_W_774" type="standard_car" route="N_W" depart="774" departLane="random" departSpeed="10" />
<vehicle id="E_N_778" type="standard_car" route="E_N" depart="778" departLane="random" departSpeed="10" />
<vehicle id="E_N_784" type="standard_car" route="E_N" depart="784" departLane="random" departSpeed="10" />
<vehicle id="N_S_784" type="standard_car" route="N_S" depart="784" departLane="random" departSpeed="10" />
<vehicle id="E_W_787" type="standard_car" route="E_W" depart="787" departLane="random" departSpeed="10" />
<vehicle id="N_E_788" type="standard_car" route="N_E" depart="788" departLane="random" departSpeed="10" />
<vehicle id="N_S_790" type="standard_car" route="N_S" depart="790" departLane="random" departSpeed="10" />
<vehicle id="N_E_793" type="standard_car" route="N_E" depart="793" departLane="random" departSpeed="10" />
<vehicle id="N_W_795" type="standard_car" route="N_W" depart="795" departLane="random" departSpeed="10" />
<vehicle id="W_N_797" type="standard_car" route="W_N" depart="797" departLane="random" departSpeed="10" />
<vehicle id="E_W_798" type="standard_car" route="E_W" depart="798" departLane="random" departSpeed="10" />
<vehicle id="E_W_803" type="standard_car" route="E_W" depart="803" departLane="random" departSpeed="10" />
<vehicle id="N_S_809" type="standard_car" route="N_S" depart="809" departLane="random" departSpeed="10" />
<vehicle id="S_N_824" type="standard_car" route="S_N" depart="824" departLane="random" departSpeed="10" />
<vehicle id="W_S_825" type="standard_car" route="W_S" depart="825" departLane="random" departSpeed="10" />
<vehicle id="S_E_825" type="standard_car" route="S_E" depart="825" departLane="random" departSpeed="10" />