<routes> 
<vType accel="1.0" decel="4.5" id="standard_car" length="5.0" minGap="2.5" maxSpeed="25" sigma="0.5" />
<route id="E_N" edges="1i 2o"/>
<route id="E_W" edges="1i 3o"/>
<route id="E_S" edges="1i 4o"/>
<route id="N_W" edges="2i 3o"/>
<route id="N_S" edges="2i 4o"/>
<route id="N_E" edges="2i 1o"/>
<route id="W_S" edges="3i 4o"/>
<route id="W_E" edges="3i 1o"/>
<route id="W_N" edges="3i 2o"/>
<route id="S_E" edges="4i 1o"/>
<route id="S_N" edges="4i 2o"/>
<route id="S_W" edges="4i 3o"/>
<vehicle id="S_N_14" type="standard_car" route="S_N" depart="14" departLane="random" departSpeed="10" />
<vehicle id="E_N_16" type="standard_car" route="E_N" depart="16" departLane="random" departSpeed="10" />
<vehicle id="W_N_19" type="standard_car" route="W_N" depart="19" departLane="random" departSpeed="10" />
<vehicle id="N_W_24" type="standard_car" route="N_W" depart="24" departLane="random" departSpeed="10" />
<vehicle id="S_E_37" type="standard_car" route="S_E" depart="37" departLane="random" departSpeed="10" />
<vehicle id="N_E_38" type="standard_car" route="N_E" depart="38" departLane="random" departSpeed="10" />
<vehicle id="N_S_45" type="standard_car" route="N_S" depart="45" departLane="random" departSpeed="10" />
<vehicle id="W_E_51" type="standard_car" route="W_E" depart="51" departLane="random" departSpeed="10" />
<vehicle id="W_E_52" type="standard_car" route="W_E" depart="52" departLane="random" departSpeed="10" />
<vehicle id="E_W_54" type="standard_car" route="E_W" depart="54" departLane="random" departSpeed="10" />
<vehicle id="W_E_54" type="standard_car" route="W_E" depart="54" departLane="random" departSpeed="10" />
<vehicle id="N_E_61" type="standard_car" route="N_E" depart="61" departLane="random" departSpeed="10" />
<vehicle id="S_N_62" type="standard_car" route="S_N" depart="62" departLane="random" departSpeed="10" />
<vehicle id="E_W_63" type="standard_car" route="E_W" depart="63" departLane="random" departSpeed="10" />
<vehicle id="E_W_64" type="standard_car" route="E_W" depart="64" departLane="random" departSpeed="10" />
<vehicle id="N_W_64" type="standard_car" route="N_W" depart="64" departLane="random" departSpeed="10" />
<vehicle id="S_N_66" type="standard_car" route="S_N" depart="66" departLane="random" departSpeed="10" />
<vehicle id="W_E_69" type="standard_car" route="W_E" depart="69" departLane="random" departSpeed="10" />
<vehicle id="S_E_76" type="standard_car" route="S_E" depart="76" departLane="random" departSpeed="10" />
<vehicle id="N_S_86" type="standard_car" route="N_S" depart="86" departLane="random" departSpeed="10" />
<vehicle id="S_E_86" type="standard_car" route="S_E" depart="86" departLane="random" departSpeed="10" />
<vehicle id="S_W_89" type="standard_car" route="S_W" depart="89" departLane="random" departSpeed="10" />
<vehicle id="S_E_93" type="standard_car" route="S_E" depart="93" departLane="random" departSpeed="10" />
<vehicle id="E_S_100" type="standard_car" route="E_S" depart="100" departLane="random" departSpeed="10" />
<vehicle id="E_S_103" type="standard_car" route="E_S" depart="103" departLane="random" departSpeed="10" />
<vehicle id="E_W_104" type="standard_car" route="E_W" depart="104" departLane="random" departSpeed="10" />
<vehicle id="N_S_105" type="standard_car" route="N_S" depart="105" departLane="random" departSpeed="10" />
<vehicle id="N_E_106" type="standard_car" route="N_E" depart="106" departLane="random" departSpeed="10" />
<vehicle id="W_S_117" type="standard_car" route="W_S" depart="117" departLane="random" departSpeed="10" />
<vehicle id="N_W_119" type="standard_car" route="N_W" depart="119" departLane="random" departSpeed="10" />
<vehicle id="N_S_119" type="standard_car" route="N_S" depart="119" departLane="random" departSpeed="10" />
<vehicle id="N_S_122" type="standard_car" route="N_S" depart="122" departLane="random" departSpeed="10" />
<vehicle id="N_W_123" type="standard_car" route="N_W" depart="123" departLane="random" departSpeed="10" />
<vehicle id="N_S_123" type="standard_car" route="N_S" depart="123" departLane="random" departSpeed="10" />
<vehicle id="N_W_127" type="standard_car" route="N_W" depart="127" departLane="random" departSpeed="10" />
<vehicle id="E_N_129" type="standard_car" route="E_N" depart="129" departLane="random" departSpeed="10" />
<vehicle id="W_N_136" type="standard_car" route="W_N" depart="136" departLane="random" departSpeed="10" />
<vehicle id="S_N_139" type="standard_car" route="S_N" depart="139" departLane="random" departSpeed="10" />
<vehicle id="S_N_142" type="standard_car" route="S_N" depart="142" departLane="random" departSpeed="10" />
<vehicle id="E_S_151" type="standard_car" route="E_S" depart="151" departLane="random" departSpeed="10" />
<vehicle id="N_W_157" type="standard_car" route="N_W" depart="157" departLane="random" departSpeed="10" />
<vehicle id="N_W_161" type="standard_car" route="N_W" depart="161" departLane="random" departSpeed="10" />
<vehicle id="E_N_163" type="standard_car" route="E_N" depart="163" departLane="random" departSpeed="10" />
<vehicle id="S_N_167" type="standard_car" route="S_N" depart="167" departLane="random" departSpeed="10" />
<vehicle id="E_N_170" type="standard_car" route="E_N" depart="170" departLane="random" departSpeed="10" />
<vehicle id="W_N_170" type="standard_car" route="W_N" depart="170" departLane="random" departSpeed="10" />
<vehicle id="N_S_174" type="standard_car" route="N_S" depart="174" departLane="random" departSpeed="10" />
<vehicle id="N_W_176" type="standard_car" route="N_W" depart="176" departLane="random" departSpeed="10" />
<vehicle id="N_E_177" type="standard_car" route="N_E" depart="177" departLane="random" departSpeed="10" />
<vehicle id="N_S_181" type="standard_car" route="N_S" depart="181" departLane="random" departSpeed="10" />
<vehicle id="S_N_181" type="standard_car" route="S_N" depart="181" departLane="random" departSpeed="10" />
<vehicle id="W_E_182" type="standard_car" route="W_E" depart="182" departLane="random" departSpeed="10" />
<vehicle id="S_N_184" type="standard_car" route="S_N" depart="184" departLane="random" departSpeed="10" />
<vehicle id="N_S_188" type="standard_car" route="N_S" depart="188" departLane="random" departSpeed="10" />
<vehicle id="N_S_193" type="standard_car" route="N_S" depart="193" departLane="random" departSpeed="10" />
<vehicle id="W_N_194" type="standard_car" route="W_N" depart="194" departLane="random" departSpeed="10" />
<vehicle id="W_E_195" type="standard_car" route="W_E" depart="195" departLane="random" departSpeed="10" />
<vehicle id="S_N_195" type="standard_car" route="S_N" depart="195" departLane="random" departSpeed="10" />
<vehicle id="N_W_200" type="standard_car" route="N_W" depart="200" departLane="random" departSpeed="10" />
<vehicle id="E_W_204" type="standard_car" route="E_W" depart="204" departLane="random" departSpeed="10" />
<vehicle id="E_S_210" type="standard_car" route="E_S" depart="210" departLane="random" departSpeed="10" />
<vehicle id="E_W_211" type="standard_car" route="E_W" depart="211" departLane="random" departSpeed="10" />
<vehicle id="S_N_211" type="standard_car" route="S_N" depart="211" departLane="random" departSpeed="10" />
<vehicle id="S_N_212" type="standard_car" route="S_N" depart="212" departLane="random" departSpeed="10" />
<vehicle id="E_S_215" type="standard_car" route="E_S" depart="215" departLane="random" departSpeed="10" />
<vehicle id="N_S_216" type="standard_car" route="N_S" depart="216" departLane="random" departSpeed="10" />
<vehicle id="W_E_216" type="standard_car" route="W_E" depart="216" departLane="random" departSpeed="10" />
<vehicle id="E_W_217" type="standard_car" route="E_W" depart="217" departLane="random" departSpeed="10" />
<vehicle id="W_E_218" type="standard_car" route="W_E" depart="218" departLane="random" departSpeed="10" />
<vehicle id="E_W_219" type="standard_car" route="E_W" depart="219" departLane="random" departSpeed="10" />
<vehicle id="S_N_219" type="standard_car" route="S_N" depart="219" departLane="random" departSpeed="10" />
<vehicle id="S_N_220" type="standard_car" route="S_N" depart="220" departLane="random" departSpeed="10" />
<vehicle id="E_W_224" type="standard_car" route="E_W" depart="224" departLane="random" departSpeed="10" />
<vehicle id="E_W_225" type="standard_car" route="E_W" depart="225" departLane="random" departSpeed="10" />
<vehicle id="N_W_225" type="standard_car" route="N_W" depart="225" departLane="random" departSpeed="10" />
<vehicle id="W_E_226" type="standard_car" route="W_E" depart="226" departLane="random" departSpeed="10" />
<vehicle id="W_E_228" type="standard_car" route="W_E" depart="228" departLane="random" departSpeed="10" />
<vehicle id="S_N_228" type="standard_car" route="S_N" depart="228" departLane="random" departSpeed="10" />
<vehicle id="N_S_230" type="standard_car" route="N_S" depart="230" departLane="random" departSpeed="10" />
<vehicle id="W_E_232" type="standard_car" route="W_E" depart="232" departLane="random" departSpeed="10" />
<vehicle id="N_S_235" type="standard_car" route="N_S" depart="235" departLane="random" departSpeed="10" />
<vehicle id="E_N_240" type="standard_car" route="E_N" depart="240" departLane="random" departSpeed="10" />
<vehicle id="S_E_241" type="standard_car" route="S_E" depart="241" departLane="random" departSpeed="10" />
<vehicle id="N_S_245" type="standard_car" route="N_S" depart="245" departLane="random" departSpeed="10" />
<vehicle id="N_S_248" type="standard_car" route="N_S" depart="248" departLane="random" departSpeed="10" />
<vehicle id="S_N_251" type="standard_car" route="S_N" depart="251" departLane="random" departSpeed="10" />
<vehicle id="S_N_254" type="standard_car" route="S_N" depart="254" departLane="random" departSpeed="10" />
<vehicle id="N_W_259" type="standard_car" route="N_W" depart="259" departLane="random" departSpeed="10" />
<vehicle id="S_N_260" type="standard_car" route="S_N" depart="260" departLane="random" departSpeed="10" />
<vehicle id="W_E_270" type="standard_car" route="W_E" depart="270" departLane="random" departSpeed="10" />
<vehicle id="W_E_271" type="standard_car" route="W_E" depart="271" departLane="random" departSpeed="10" />
<vehicle id="E_N_274" type="standard_car" route="E_N" depart="274" departLane="random" departSpeed="10" />
<vehicle id="S_N_275" type="standard_car" route="S_N" depart="275" departLane="random" departSpeed="10" />
<vehicle id="W_E_283" type="standard_car" route="W_E" depart="283" departLane="random" departSpeed="10" />
<vehicle id="N_E_292" type="standard_car" route="N_E" depart="292" departLane="random" departSpeed="10" />
<vehicle id="W_N_292" type="standard_car" route="W_N" depart="292" departLane="random" departSpeed="10" />
<vehicle id="W_S_293" type="standard_car" route="W_S" depart="293" departLane="random" departSpeed="10" />
<vehicle id="N_S_298" type="standard_car" route="N_S" depart="298" departLane="random" departSpeed="10" />
<vehicle id="W_E_298" type="standard_car" route="W_E" depart="298" departLane="random" departSpeed="10" />
<vehicle id="N_S_300" type="standard_car" route="N_S" depart="300" departLane="random" departSpeed="10" />
<vehicle id="W_E_304" type="standard_car" route="W_E" depart="304" departLane="random" departSpeed="10" />
<vehicle id="E_W_310" type="standard_car" route="E_W" depart="310" departLane="random" departSpeed="10" />
<vehicle id="N_S_314" type="standard_car" route="N_S" depart="314" departLane="random" departSpeed="10" />
<vehicle id="E_N_323" type="standard_car" route="E_N" depart="323" departLane="random" departSpeed="10" />
<vehicle id="S_N_326" type="standard_car" route="S_N" depart="326" departLane="random" departSpeed="10" />
<vehicle id="N_S_327" type="standard_car" route="N_S" depart="327" departLane="random" departSpeed="10" />
<vehicle id="S_N_327" type="standard_car" route="S_N" depart="327" departLane="random" departSpeed="10" />
<vehicle id="S_N_330" type="standard_car" route="S_N" depart="330" departLane="random" departSpeed="10" />
<vehicle id="W_E_331" type="standard_car" route="W_E" depart="331" departLane="random" departSpeed="10" />
<vehicle id="N_S_333" type="standard_car" route="N_S" depart="333" departLane="random" departSpeed="10" />
<vehicle id="W_E_335" type="standard_car" route="W_E" depart="335" departLane="random" departSpeed="10" />
<vehicle id="S_E_337" type="standard_car" route="S_E" depart="337" departLane="random" departSpeed="10" />
<vehicle id="S_N_350" type="standard_car" route="S_N" depart="350" departLane="random" departSpeed="10" />
<vehicle id="W_S_353" type="standard_car" route="W_S" depart="353" departLane="random" departSpeed="10" />
<vehicle id="E_W_354" type="standard_car" route="E_W" depart="354" departLane="random" departSpeed="10" />
<vehicle id="W_E_356" type="standard_car" route="W_E" depart="356" departLane="random" departSpeed="10" />
<vehicle id="E_W_361" type="standard_car" route="E_W" depart="361" departLane="random" departSpeed="10" />
<vehicle id="N_E_361" type="standard_car" route="N_E" depart="361" departLane="random" departSpeed="10" />
<vehicle id="W_S_361" type="standard_car" route="W_S" depart="361" departLane="random" departSpeed="10" />
<vehicle id="E_N_362" type="standard_car" route="E_N" depart="362" departLane="random" departSpeed="10" />
<vehicle id="E_N_364" type="standard_car" route="E_N" depart="364" departLane="random" departSpeed="10" />
<vehicle id="E_W_364" type="standard_car" route="E_W" depart="364" departLane="random" departSpeed="10" />
<vehicle id="N_S_364" type="standard_car" route="N_S" depart="364" departLane="random" departSpeed="10" />
<vehicle id="E_W_366" type="standard_car" route="E_W" depart="366" departLane="random" departSpeed="10" />
<vehicle id="S_E_367" type="standard_car" route="S_E" depart="367" departLane="random" departSpeed="10" />
<vehicle id="N_S_376" type="standard_car" route="N_S" depart="376" departLane="random" departSpeed="10" />
<vehicle id="S_W_378" type="standard_car" route="S_W" depart="378" departLane="random" departSpeed="10" />
<vehicle id="W_E_380" type="standard_car" route="W_E" depart="380" departLane="random" departSpeed="10" />
<vehicle id="W_E_388" type="standard_car" route="W_E" depart="388" departLane="random" departSpeed="10" />
<vehicle id="N_S_397" type="standard_car" route="N_S" depart="397" departLane="random" departSpeed="10" />
<vehicle id="N_E_397" type="standard_car" route="N_E" depart="397" departLane="random" departSpeed="10" />
<vehicle id="E_W_409" type="standard_car" route="E_W" depart="409" departLane="random" departSpeed="10" />
<vehicle id="E_S_411" type="standard_car" route="E_S" depart="411" departLane="random" departSpeed="10" />
<vehicle id="N_S_413" type="standard_car" route="N_S" depart="413" departLane="random" departSpeed="10" />
<vehicle id="S_E_413" type="standard_car" route="S_E" depart="413" departLane="random" departSpeed="10" />
<vehicle id="E_N_414" type="standard_car" route="E_N" depart="414" departLane="random" departSpeed="10" />
<vehicle id="N_S_417" type="standard_car" route="N_S" depart="417" departLane="random" departSpeed="10" />
<vehicle id="N_S_418" type="standard_car" route="N_S" depart="418" departLane="random" departSpeed="10" />
<vehicle id="W_E_420" type="standard_car" route="W_E" depart="420" departLane="random" departSpeed="10" />
<vehicle id="W_E_421" type="standard_car" route="W_E" depart="421" departLane="random" departSpeed="10" />
<vehicle id="S_N_421" type="standard_car" route="S_N" depart="421" departLane="random" departSpeed="10" />
<vehicle id="N_W_427" type="standard_car" route="N_W" depart="427" departLane="random" departSpeed="10" />
<vehicle id="W_E_427" type="standard_car" route="W_E" depart="427" departLane="random" departSpeed="10" />
<vehicle id="E_W_428" type="standard_car" route="E_W" depart="428" departLane="random" departSpeed="10" />
<vehicle id="N_W_428" type="standard_car" route="N_W" depart="428" departLane="random" departSpeed="10" />
<vehicle id="S_E_438" type="standard_car" route="S_E" depart="438" departLane="random" departSpeed="10" />
<vehicle id="N_W_442" type="standard_car" route="N_W" depart="442" departLane="random" departSpeed="10" />
<vehicle id="N_S_457" type="standard_car" route="N_S" depart="457" departLane="random" departSpeed="10" />
<vehicle id="W_E_457" type="standard_car" route="W_E" depart="457" departLane="random" departSpeed="10" />
<vehicle id="E_W_463" type="standard_car" route="E_W" depart="463" departLane="random" departSpeed="10" />
<vehicle id="W_E_466" type="standard_car" route="W_E" depart="466" departLane="random" departSpeed="10" />
<vehicle id="N_W_467" type="standard_car" route="N_W" depart="467" departLane="random" departSpeed="10" />
<vehicle id="E_W_479" type="standard_car" route="E_W" depart="479" departLane="random" departSpeed="10" />
<vehicle id="S_N_479" type="standard_car" route="S_N" depart="479" departLane="random" departSpeed="10" />
<vehicle id="S_N_481" type="standard_car" route="S_N" depart="481" departLane="random" departSpeed="10" />
<vehicle id="S_E_486" type="standard_car" route="S_E" depart="486" departLane="random" departSpeed="10" />
<vehicle id="W_S_488" type="standard_car" route="W_S" depart="488" departLane="random" departSpeed="10" />
<vehicle id="N_S_491" type="standard_car" route="N_S" depart="491" departLane="random" departSpeed="10" />
<vehicle id="W_N_503" type="standard_car" route="W_N" depart="503" departLane="random" departSpeed="10" />
<vehicle id="N_E_511" type="standard_car" route="N_E" depart="511" departLane="random" departSpeed="10" />
<vehicle id="W_E_512" type="standard_car" route="W_E" depart="512" departLane="random" departSpeed="10" />
<vehicle id="S_E_512" type="standard_car" route="S_E" depart="512" departLane="random" departSpeed="10" />
<vehicle id="S_N_520" type="standard_car" route="S_N" depart="520" departLane="random" departSpeed="10" />
<vehicle id="E_N_521" type="standard_car" route="E_N" depart="521" departLane="random" departSpeed="10" />
<vehicle id="N_S_523" type="standard_car" route="N_S" depart="523" departLane="random" departSpeed="10" />
<vehicle id="W_E_525" type="standard_car" route="W_E" depart="525" departLane="random" departSpeed="10" />
<vehicle id="S_N_527" type="standard_car" route="S_N" depart="527" departLane="random" departSpeed="10" />
<vehicle id="N_E_532" type="standard_car" route="N_E" depart="532" departLane="random" departSpeed="10" />
<vehicle id="S_E_533" type="standard_car" route="S_E" depart="533" departLane="random" departSpeed="10" />
<vehicle id="W_S_542" type="standard_car" route="W_S" depart="542" departLane="random" departSpeed="10" />
<vehicle id="S_N_543" type="standard_car" route="S_N" depart="543" departLane="random" departSpeed="10" />
<vehicle id="S_N_550" type="standard_car" route="S_N" depart="550" departLane="random" departSpeed="10" />
<vehicle id="N_S_551" type="standard_car" route="N_S" depart="551" departLane="random" departSpeed="10" />
<vehicle id="S_N_559" type="standard_car" route="S_N" depart="559" departLane="random" departSpeed="10" />
<vehicle id="N_S_563" type="standard_car" route="N_S" depart="563" departLane="random" departSpeed="10" />
<vehicle id="N_S_570" type="standard_car" route="N_S" depart="570" departLane="random" departSpeed="10" />
<vehicle id="E_W_572" type="standard_car" route="E_W" depart="572" departLane="random" departSpeed="10" />
<vehicle id="N_E_573" type="standard_car" route="N_E" depart="573" departLane="random" departSpeed="10" />
<vehicle id="W_E_573" type="standard_car" route="W_E" depart="573" departLane="random" departSpeed="10" />
<vehicle id="N_S_574" type="standard_car" route="N_S" depart="574" departLane="random" departSpeed="10" />
<vehicle id="S_N_574" type="standard_car" route="S_N" depart="574" departLane="random" departSpeed="10" />
<vehicle id="N_E_579" type="standard_car" route="N_E" depart="579" departLane="random" departSpeed="10" />
<vehicle id="S_N_581" type="standard_car" route="S_N" depart="581" departLane="random" departSpeed="10" />
<vehicle id="N_S_582" type="standard_car" route="N_S" depart="582" departLane="random" departSpeed="10" />
<vehicle id="W_E_585" type="standard_car" route="W_E" depart="585" departLane="random" departSpeed="10" />
<vehicle id="S_W_585" type="standard_car" route="S_W" depart="585" departLane="random" departSpeed="10" />
<vehicle id="E_S_591" type="standard_car" route="E_S" depart="591" departLane="random" departSpeed="10" />
<vehicle id="W_E_593" type="standard_car" route="W_E" depart="593" departLane="random" departSpeed="10" />
<vehicle id="S_N_595" type="standard_car" route="S_N" depart="595" departLane="random" departSpeed="10" />
<vehicle id="S_N_597" type="standard_car" route="S_N" depart="597" departLane="random" departSpeed="10" />
<vehicle id="N_S_601" type="standard_car" route="N_S" depart="601" departLane="random" departSpeed="10" />
<vehicle id="S_N_608" type="standard_car" route="S_N" depart="608" departLane="random" departSpeed="10" />
<vehicle id="W_E_612" type="standard_car" route="W_E" depart="612" departLane="random" departSpeed="10" />
<vehicle id="N_S_614" type="standard_car" route="N_S" depart="614" departLane="random" departSpeed="10" />
<vehicle id="S_N_614" type="standard_car" route="S_N" depart="614" departLane="random" departSpeed="10" />
<vehicle id="W_S_617" type="standard_car" route="W_S" depart="617" departLane="random" departSpeed="10" />
<vehicle id="E_N_619" type="standard_car" route="E_N" depart="619" departLane="random" departSpeed="10" />
<vehicle id="N_S_621" type="standard_car" route="N_S" depart="621" departLane="random" departSpeed="10" />
<vehicle id="E_W_622" type="standard_car" route="E_W" depart="622" departLane="random" departSpeed="10" />
<vehicle id="W_E_622" type="standard_car" route="W_E" depart="622" departLane="random" departSpeed="10" />
<vehicle id="N_S_627" type="standard_car" route="N_S" depart="627" departLane="random" departSpeed="10" />
<vehicle id="S_N_630" type="standard_car" route="S_N" depart="630" departLane="random" departSpeed="10" />
<vehicle id="N_S_632" type="standard_car" route="N_S" depart="632" departLane="random" departSpeed="10" />
<vehicle id="W_E_632" type="standard_car" route="W_E" depart="632" departLane="random" departSpeed="10" />
<vehicle id="W_E_641" type="standard_car" route="W_E" depart="641" departLane="random" departSpeed="10" />
<vehicle id="N_S_644" type="standard_car" route="N_S" depart="644" departLane="random" departSpeed="10" />
<vehicle id="E_S_645" type="standard_car" route="E_S" depart="645" departLane="random" departSpeed="10" />
<vehicle id="N_S_658" type="standard_car" route="N_S" depart="658" departLane="random" departSpeed="10" />
<vehicle id="N_E_659" type="standard_car" route="N_E" depart="659" departLane="random" departSpeed="10" />
<vehicle id="E_W_663" type="standard_car" route="E_W" depart="663" departLane="random" departSpeed="10" />
<vehicle id="E_W_666" type="standard_car" route="E_W" depart="666" departLane="random" departSpeed="10" />
<vehicle id="S_N_666" type="standard_car" route="S_N" depart="666" departLane="random" departSpeed="10" />
<vehicle id="N_S_668" type="standard_car" route="N_S" depart="668" departLane="random" departSpeed="10" />
<vehicle id="S_E_670" type="standard_car" route="S_E" depart="670" departLane="random" departSpeed="10" />
<vehicle id="N_E_674" type="standard_car" route="N_E" depart="674" departLane="random" departSpeed="10" />
<vehicle id="W_E_675" type="standard_car" route="W_E" depart="675" departLane="random" departSpeed="10" />
<vehicle id="W_N_681" type="standard_car" route="W_N" depart="681" departLane="random" departSpeed="10" />
<vehicle id="E_N_690" type="standard_car" route="E_N" depart="690" departLane="random" departSpeed="10" />
<vehicle id="N_S_693" type="standard_car" route="N_S" depart="693" departLane="random" departSpeed="10" />
<vehicle id="W_S_693" type="standard_car" route="W_S" depart="693" departLane="random" departSpeed="10" />
<vehicle id="W_S_699" type="standard_car" route="W_S" depart="699" departLane="random" departSpeed="10" />
<vehicle id="W_N_700" type="standard_car" route="W_N" depart="700" departLane="random" departSpeed="10" />
<vehicle id="N_S_703" type="standard_car" route="N_S" depart="703" departLane="random" departSpeed="10" />
<vehicle id="N_S_710" type="standard_car" route="N_S" depart="710" departLane="random" departSpeed="10" />
<vehicle id="E_W_712" type="standard_car" route="E_W" depart="712" departLane="random" departSpeed="10" />
<vehicle id="S_N_718" type="standard_car" route="S_N" depart="718" departLane="random" departSpeed="10" />
<vehicle id="W_N_722" type="standard_car" route="W_N" depart="722" departLane="random" departSpeed="10" />
<vehicle id="E_W_723" type="standard_car" route="E_W" depart="723" departLane="random" departSpeed="10" />
<vehicle id="S_E_729" type="standard_car" route="S_E" depart="729" departLane="random" departSpeed="10" />
<vehicle id="E_W_734" type="standard_car" route="E_W" depart="734" departLane="random" departSpeed="10" />
<vehicle id="N_W_736" type="standard_car" route="N_W" depart="736" departLane="random" departSpeed="10" />
<vehicle id="W_N_738" type="standard_car" route="W_N" depart="738" departLane="random" departSpeed="10" />
<vehicle id="W_S_740" type="standard_car" route="W_S" depart="740" departLane="random" departSpeed="10" />
<vehicle id="N_S_741" type="standard_car" route="N_S" depart="741" departLane="random" departSpeed="10" />
<vehicle id="N_S_742" type="standard_car" route="N_S" depart="742" departLane="random" departSpeed="10" />
<vehicle id="S_N_747" type="standard_car" route="S_N" depart="747" departLane="random" departSpeed="10" />
<vehicle id="E_W_754" type="standard_car" route="E_W" depart="754" departLane="random" departSpeed="10" />
<vehicle id="N_W_754" type="standard_car" route="N_W" depart="754" departLane="random" departSpeed="10" />
<vehicle id="E_W_756" type="standard_car" route="E_W" depart="756" departLane="random" departSpeed="10" />
<vehicle id="N_W_757" type="standard_car" route="N_W" depart="757" departLane="random" departSpeed="10" />
<vehicle id="S_W_761" type="standard_car" route="S_W" depart="761" departLane="random" departSpeed="10" />
<vehicle id="W_S_763" type="standard_car" route="W_S" depart="763" departLane="random" departSpeed="10" />
<vehicle id="W_S_764" type="standard_car" route="W_S" depart="764" departLane="random" departSpeed="10" />
<vehicle id="E_S_776" type="standard_car" route="E_S" depart="776" departLane="random" departSpeed="10" />
<vehicle id="W_S_780" type="standard_car" route="W_S" depart="780" departLane="random" departSpeed="10" />
<vehicle id="N_E_782" type="standard_car" route="N_E" depart="782" departLane="random" departSpeed="10" />
<vehicle id="S_N_784" type="standard_car" route="S_N" depart="784" departLane="random" departSpeed="10" />
<vehicle id="W_S_785" type="standard_car" route="W_S" depart="785" departLane="random" departSpeed="10" />
<vehicle id="E_N_787" type="standard_car" route="E_N" depart="787" departLane="random" departSpeed="10" />
<vehicle id="S_E_790" type="standard_car" route="S_E" depart="790" departLane="random" departSpeed="10" />
<vehicle id="E_W_793" type="standard_car" route="E_W" depart="793" departLane="random" departSpeed="10" />
<vehicle id="N_S_796" type="standard_car" route="N_S" depart="796" departLane="random" departSpeed="10" />
<vehicle id="W_N_797" type="standard_car" route="W_N" depart="797" departLane="random" departSpeed="10" />
<vehicle id="W_S_798" type="standard_car" route="W_S" depart="798" departLane="random" departSpeed="10" />
<vehicle id="N_W_803" type="standard_car" route="N_W" depart="803" departLane="random" departSpeed="10" />
<vehicle id="W_N_803" type="standard_car" route="W_N" depart="803" departLane="random" departSpeed="10" />
<vehicle id="W_E_804" type="standard_car" route="W_E" depart="804" departLane="random" departSpeed="10" />
<vehicle id="N_W_817" type="standard_car" route="N_W" depart="817" departLane="random" departSpeed="10" />
<vehicle id="W_E_817" type="standard_car" route="W_E" depart="817" departLane="random" departSpeed="10" />
<vehicle id="S_N_819" type="standard_car" route="S_N" depart="819" departLane="random" departSpeed="10" />
<vehicle id="W_S_820" type="standard_car" route="W_S" depart="820" departLane="random" departSpeed="10" />
<vehicle id="W_E_822" type="standard_car" route="W_E" depart="822" departLane="random" departSpeed="10" />
<vehicle id="E_W_823" type="standard_car" route="E_W" depart="823" departLane="random" departSpeed="10" />
<vehicle id="E_W_824" type="standard_car" route="E_W" depart="824" departLane="random" departSpeed="10" />
<vehicle id="E_W_825" type="standard_car" route="E_W" depart="825" departLane="random" departSpeed="10" />
<vehicle id="W_E_828" type="standard_car" route="W_E" depart="828" departLane="random" departSpeed="10" />
<vehicle id="W_E_835" type="standard_car" route="W_E" depart="835" departLane="random" departSpeed="10" />
<vehicle id="E_W_840" type="standard_car" route="E_W" depart="840" departLane="random" departSpeed="10" />
<vehicle id="S_N_841" type="standard_car" route="S_N" depart="841" departLane="random" departSpeed="10" />
<vehicle id="S_E_843" type="standard_car" route="S_E" depart="843" departLane="random" departSpeed="10" />
<vehicle id="E_W_849" type="standard_car" route="E_W" depart="849" departLane="random" departSpeed="10" />
<vehicle id="E_W_850" type="standard_car" route="E_W" depart="850" departLane="random" departSpeed="10" />
<vehicle id="W_E_851" type="standard_car" route="W_E" depart="851" departLane="random" departSpeed="10" />
<vehicle id="S_N_854" type="standard_car" route="S_N" depart="854" departLane="random" departSpeed="10" />
<vehicle id="N_S_856" type="standard_car" route="N_S" depart="856" departLane="random" departSpeed="10" />
<vehicle id="W_E_864" type="standard_car" route="W_E" depart="864" departLane="random" departSpeed="10" />