<routes> 
<vType accel="1.0" decel="4.5" id="standard_car" length="5.0" minGap="2.5" maxSpeed="25" sigma="0.5" />
<route id="E_N" edges="1i 2o"/>
<route id="E_W" edges="1i 3o"/>
<route id="E_S" edges="1i 4o"/>
<route id="N_W" edges="2i 3o"/>
<route id="N_S" edges="2i 4o"/>
<route id="N_E" edges="2i 1o"/>
<route id="W_S" edges="3i 4o"/>
<route id="W_E" edges="3i 1o"/>
<route id="W_N" edges="3i 2o"/>
<route id="S_E" edges="4i 1o"/>
<route id="S_N" edges="4i 2o"/>
<route id="S_W" edges="4i 3o"/>
<vehicle id="W_S_4" type="standard_car" route="W_S" depart="4" departLane="random" departSpeed="10" />
<vehicle id="N_S_7" type="standard_car" route="N_S" depart="7" departLane="random" departSpeed="10" />
<vehicle id="S_N_7" type="standard_car" route="S_N" depart="7" departLane="random" departSpeed="10" />
<vehicle id="W_E_9" type="standard_car" route="W_E" depart="9" departLane="random" departSpeed="10" />
<vehicle id="E_W_12" type="standard_car" route="E_W" depart="12" departLane="random" departSpeed="10" />
<vehicle id="N_W_14" type="standard_car" route="N_W" depart="14" departLane="random" departSpeed="10" />
<vehicle id="S_N_14" type="standard_car" route="S_N" depart="14" departLane="random" departSpeed="10" />
<vehicle id="S_W_20" type="standard_car" route="S_W" depart="20" departLane="random" departSpeed="10" />
<vehicle id="W_S_29" type="standard_car" route="W_S" depart="29" departLane="random" departSpeed="10" />
<vehicle id="W_E_33" type="standard_car" route="W_E" depart="33" departLane="random" departSpeed="10" />
<vehicle id="N_S_34" type="standard_car" route="N_S" depart="34" departLane="random" departSpeed="10" />
<vehicle id="N_S_35" type="standard_car" route="N_S" depart="35" departLane="random" departSpeed="10" />
<vehicle id="S_E_41" type="standard_car" route="S_E" depart="41" departLane="random" departSpeed="10" />
<vehicle id="E_W_42" type="standard_car" route="E_W" depart="42" departLane="random" departSpeed="10" />
<vehicle id="S_N_42" type="standard_car" route="S_N" depart="42" departLane="random" departSpeed="10" />
<vehicle id="N_S_43" type="standard_car" route="N_S" depart="43" departLane="random" departSpeed="10" />
<vehicle id="E_W_45" type="standard_car" route="E_W" depart="45" departLane="random" departSpeed="10" />
<vehicle id="S_W_46" type="standard_car" route="S_W" depart="46" departLane="random" departSpeed="10" />
<vehicle id="S_E_47" type="standard_car" route="S_E" depart="47" departLane="random" departSpeed="10" />
<vehicle id="W_S_52" type="standard_car" route="W_S" depart="52" departLane="random" departSpeed="10" />
<vehicle id="N_E_56" type="standard_car" route="N_E" depart="56" departLane="random" departSpeed="10" />
<vehicle id="N_W_57" type="standard_car" route="N_W" depart="57" departLane="random" departSpeed="10" />
<vehicle id="W_E_69" type="standard_car" route="W_E" depart="69" departLane="random" departSpeed="10" />
<vehicle id="E_N_70" type="standard_car" route="E_N" depart="70" departLane="random" departSpeed="10" />
<vehicle id="S_N_70" type="standard_car" route="S_N" depart="70" departLane="random" departSpeed="10" />
<vehicle id="W_S_71" type="standard_car" route="W_S" depart="71" departLane="random" departSpeed="10" />
<vehicle id="W_S_72" type="standard_car" route="W_S" depart="72" departLane="random" departSpeed="10" />
<vehicle id="W_E_74" type="standard_car" route="W_E" depart="74" departLane="random" departSpeed="10" />
<vehicle id="W_E_82" type="standard_car" route="W_E" depart="82" departLane="random" departSpeed="10" />
<vehicle id="S_E_84" type="standard_car" route="S_E" depart="84" departLane="random" departSpeed="10" />
<vehicle id="W_E_89" type="standard_car" route="W_E" depart="89" departLane="random" departSpeed="10" />
<vehicle id="W_E_97" type="standard_car" route="W_E" depart="97" departLane="random" departSpeed="10" />
<vehicle id="N_S_98" type="standard_car" route="N_S" depart="98" departLane="random" departSpeed="10" />
<vehicle id="N_S_99" type="standard_car" route="N_S" depart="99" departLane="random" departSpeed="10" />
<vehicle id="W_E_108" type="standard_car" route="W_E" depart="108" departLane="random" departSpeed="10" />
<vehicle id="E_W_110" type="standard_car" route="E_W" depart="110" departLane="random" departSpeed="10" />
<vehicle id="N_S_111" type="standard_car" route="N_S" depart="111" departLane="random" departSpeed="10" />
<vehicle id="S_N_112" type="standard_car" route="S_N" depart="112" departLane="random" departSpeed="10" />
<vehicle id="N_S_114" type="standard_car" route="N_S" depart="114" departLane="random" departSpeed="10" />
<vehicle id="S_W_115" type="standard_car" route="S_W" depart="115" departLane="random" departSpeed="10" />
<vehicle id="N_S_123" type="standard_car" route="N_S" depart="123" departLane="random" departSpeed="10" />
<vehicle id="S_E_124" type="standard_car" route="S_E" depart="124" departLane="random" departSpeed="10" />
<vehicle id="S_N_124" type="standard_car" route="S_N" depart="124" departLane="random" departSpeed="10" />
<vehicle id="S_E_126" type="standard_car" route="S_E" depart="126" departLane="random" departSpeed="10" />
<vehicle id="S_N_143" type="standard_car" route="S_N" depart="143" departLane="random" departSpeed="10" />
<vehicle id="E_W_148" type="standard_car" route="E_W" depart="148" departLane="random" departSpeed="10" />
<vehicle id="W_E_151" type="standard_car" route="W_E" depart="151" departLane="random" departSpeed="10" />
<vehicle id="E_W_153" type="standard_car" route="E_W" depart="153" departLane="random" departSpeed="10" />
<vehicle id="W_E_155" type="standard_car" route="W_E" depart="155" departLane="random" departSpeed="10" />
<vehicle id="W_S_160" type="standard_car" route="W_S" depart="160" departLane="random" departSpeed="10" />
<vehicle id="W_E_175" type="standard_car" route="W_E" depart="175" departLane="random" departSpeed="10" />
<vehicle id="E_N_183" type="standard_car" route="E_N" depart="183" departLane="random" departSpeed="10" />
<vehicle id="S_W_185" type="standard_car" route="S_W" depart="185" departLane="random" departSpeed="10" />
<vehicle id="E_W_187" type="standard_car" route="E_W" depart="187" departLane="random" departSpeed="10" />
<vehicle id="W_E_199" type="standard_car" route="W_E" depart="199" departLane="random" departSpeed="10" />
<vehicle id="E_W_201" type="standard_car" route="E_W" depart="201" departLane="random" departSpeed="10" />
<vehicle id="W_E_202" type="standard_car" route="W_E" depart="202" departLane="random" departSpeed="10" />
<vehicle id="E_W_203" type="standard_car" route="E_W" depart="203" departLane="random" departSpeed="10" />
<vehicle id="N_E_206" type="standard_car" route="N_E" depart="206" departLane="random" departSpeed="10" />
<vehicle id="W_E_207" type="standard_car" route="W_E" depart="207" departLane="random" departSpeed="10" />
<vehicle id="N_S_208" type="standard_car" route="N_S" depart="208" departLane="random" departSpeed="10" />
<vehicle id="W_S_213" type="standard_car" route="W_S" depart="213" departLane="random" departSpeed="10" />
<vehicle id="N_S_216" type="standard_car" route="N_S" depart="216" departLane="random" departSpeed="10" />
<vehicle id="W_S_217" type="standard_car" route="W_S" depart="217" departLane="random" departSpeed="10" />
<vehicle id="W_N_224" type="standard_car" route="W_N" depart="224" departLane="random" departSpeed="10" />
<vehicle id="N_W_226" type="standard_car" route="N_W" depart="226" departLane="random" departSpeed="10" />
<vehicle id="E_S_227" type="standard_car" route="E_S" depart="227" departLane="random" departSpeed="10" />
<vehicle id="N_S_229" type="standard_car" route="N_S" depart="229" departLane="random" departSpeed="10" />
<vehicle id="N_S_231" type="standard_car" route="N_S" depart="231" departLane="random" departSpeed="10" />
<vehicle id="E_W_233" type="standard_car" route="E_W" depart="233" departLane="random" departSpeed="10" />
<vehicle id="N_S_236" type="standard_car" route="N_S" depart="236" departLane="random" departSpeed="10" />
<vehicle id="E_N_237" type="standard_car" route="E_N" depart="237" departLane="random" departSpeed="10" />
<vehicle id="W_N_239" type="standard_car" route="W_N" depart="239" departLane="random" departSpeed="10" />
<vehicle id="E_S_242" type="standard_car" route="E_S" depart="242" departLane="random" departSpeed="10" />
<vehicle id="E_N_243" type="standard_car" route="E_N" depart="243" departLane="random" departSpeed="10" />
<vehicle id="E_N_256" type="standard_car" route="E_N" depart="256" departLane="random" departSpeed="10" />
<vehicle id="W_E_256" type="standard_car" route="W_E" depart="256" departLane="random" departSpeed="10" />
<vehicle id="W_N_257" type="standard_car" route="W_N" depart="257" departLane="random" departSpeed="10" />
<vehicle id="N_S_260" type="standard_car" route="N_S" depart="260" departLane="random" departSpeed="10" />
<vehicle id="N_S_261" type="standard_car" route="N_S" depart="261" departLane="random" departSpeed="10" />
<vehicle id="N_S_263" type="standard_car" route="N_S" depart="263" departLane="random" departSpeed="10" />
<vehicle id="N_S_264" type="standard_car" route="N_S" depart="264" departLane="random" departSpeed="10" />
<vehicle id="W_E_264" type="standard_car" route="W_E" depart="264" departLane="random" departSpeed="10" />
<vehicle id="E_S_266" type="standard_car" route="E_S" depart="266" departLane="random" departSpeed="10" />
<vehicle id="N_S_268" type="standard_car" route="N_S" depart="268" departLane="random" departSpeed="10" />
<vehicle id="E_W_269" type="standard_car" route="E_W" depart="269" departLane="random" departSpeed="10" />
<vehicle id="S_N_278" type="standard_car" route="S_N" depart="278" departLane="random" departSpeed="10" />
<vehicle id="N_S_281" type="standard_car" route="N_S" depart="281" departLane="random" departSpeed="10" />
<vehicle id="S_E_282" type="standard_car" route="S_E" depart="282" departLane="random" departSpeed="10" />
<vehicle id="N_S_288" type="standard_car" route="N_S" depart="288" departLane="random" departSpeed="10" />
<vehicle id="S_N_288" type="standard_car" route="S_N" depart="288" departLane="random" departSpeed="10" />
<vehicle id="N_E_290" type="standard_car" route="N_E" depart="290" departLane="random" departSpeed="10" />
<vehicle id="S_N_298" type="standard_car" route="S_N" depart="298" departLane="random" departSpeed="10" />
<vehicle id="N_S_300" type="standard_car" route="N_S" depart="300" departLane="random" departSpeed="10" />
<vehicle id="S_E_301" type="standard_car" route="S_E" depart="301" departLane="random" departSpeed="10" />
<vehicle id="S_N_302" type="standard_car" route="S_N" depart="302" departLane="random" departSpeed="10" />
<vehicle id="N_W_303" type="standard_car" route="N_W" depart="303" departLane="random" departSpeed="10" />
<vehicle id="W_E_305" type="standard_car" route="W_E" depart="305" departLane="random" departSpeed="10" />
<vehicle id="S_N_307" type="standard_car" route="S_N" depart="307" departLane="random" departSpeed="10" />
<vehicle id="E_S_310" type="standard_car" route="E_S" depart="310" departLane="random" departSpeed="10" />
<vehicle id="E_W_312" type="standard_car" route="E_W" depart="312" departLane="random" departSpeed="10" />
<vehicle id="E_S_314" type="standard_car" route="E_S" depart="314" departLane="random" departSpeed="10" />
<vehicle id="E_W_320" type="standard_car" route="E_W" depart="320" departLane="random" departSpeed="10" />
<vehicle id="S_N_325" type="standard_car" route="S_N" depart="325" departLane="random" departSpeed="10" />
<vehicle id="W_E_330" type="standard_car" route="W_E" depart="330" departLane="random" departSpeed="10" />
<vehicle id="W_N_330" type="standard_car" route="W_N" depart="330" departLane="random" departSpeed="10" />
<vehicle id="N_S_335" type="standard_car" route="N_S" depart="335" departLane="random" departSpeed="10" />
<vehicle id="S_N_335" type="standard_car" route="S_N" depart="335" departLane="random" departSpeed="10" />
<vehicle id="W_S_337" type="standard_car" route="W_S" depart="337" departLane="random" departSpeed="10" />
<vehicle id="E_N_340" type="standard_car" route="E_N" depart="340" departLane="random" departSpeed="10" />
<vehicle id="E_W_340" type="standard_car" route="E_W" depart="340" departLane="random" departSpeed="10" />
<vehicle id="N_S_341" type="standard_car" route="N_S" depart="341" departLane="random" departSpeed="10" />
<vehicle id="W_E_347" type="standard_car" route="W_E" depart="347" departLane="random" departSpeed="10" />
<vehicle id="E_W_349" type="standard_car" route="E_W" depart="349" departLane="random" departSpeed="10" />
<vehicle id="S_N_353" type="standard_car" route="S_N" depart="353" departLane="random" departSpeed="10" />
<vehicle id="E_W_357" type="standard_car" route="E_W" depart="357" departLane="random" departSpeed="10" />
<vehicle id="E_W_359" type="standard_car" route="E_W" depart="359" departLane="random" departSpeed="10" />
<vehicle id="W_E_362" type="standard_car" route="W_E" depart="362" departLane="random" departSpeed="10" />
<vehicle id="N_S_371" type="standard_car" route="N_S" depart="371" departLane="random" departSpeed="10" />
<vehicle id="N_W_374" type="standard_car" route="N_W" depart="374" departLane="random" departSpeed="10" />
<vehicle id="N_S_383" type="standard_car" route="N_S" depart="383" departLane="random" departSpeed="10" />
<vehicle id="W_S_383" type="standard_car" route="W_S" depart="383" departLane="random" departSpeed="10" />
<vehicle id="E_N_385" type="standard_car" route="E_N" depart="385" departLane="random" departSpeed="10" />
<vehicle id="S_E_385" type="standard_car" route="S_E" depart="385" departLane="random" departSpeed="10" />
<vehicle id="E_W_386" type="standard_car" route="E_W" depart="386" departLane="random" departSpeed="10" />
<vehicle id="S_N_396" type="standard_car" route="S_N" depart="396" departLane="random" departSpeed="10" />
<vehicle id="E_W_400" type="standard_car" route="E_W" depart="400" departLane="random" departSpeed="10" />
<vehicle id="E_S_400" type="standard_car" route="E_S" depart="400" departLane="random" departSpeed="10" />
<vehicle id="N_S_401" type="standard_car" route="N_S" depart="401" departLane="random" departSpeed="10" />
<vehicle id="S_E_403" type="standard_car" route="S_E" depart="403" departLane="random" departSpeed="10" />
<vehicle id="E_W_406" type="standard_car" route="E_W" depart="406" departLane="random" departSpeed="10" />
<vehicle id="E_S_406" type="standard_car" route="E_S" depart="406" departLane="random" departSpeed="10" />
<vehicle id="W_S_407" type="standard_car" route="W_S" depart="407" departLane="random" departSpeed="10" />
<vehicle id="E_W_408" type="standard_car" route="E_W" depart="408" departLane="random" departSpeed="10" />
<vehicle id="N_W_408" type="standard_car" route="N_W" depart="408" departLane="random" departSpeed="10" />
<vehicle id="S_N_408" type="standard_car" route="S_N" depart="408" departLane="random" departSpeed="10" />
<vehicle id="E_S_411" type="standard_car" route="E_S" depart="411" departLane="random" departSpeed="10" />
<vehicle id="S_N_411" type="standard_car" route="S_N" depart="411" departLane="random" departSpeed="10" />
<vehicle id="N_S_418" type="standard_car" route="N_S" depart="418" departLane="random" departSpeed="10" />
<vehicle id="W_E_421" type="standard_car" route="W_E" depart="421" departLane="random" departSpeed="10" />
<vehicle id="S_N_423" type="standard_car" route="S_N" depart="423" departLane="random" departSpeed="10" />
<vehicle id="W_E_426" type="standard_car" route="W_E" depart="426" departLane="random" departSpeed="10" />
<vehicle id="N_S_429" type="standard_car" route="N_S" depart="429" departLane="random" departSpeed="10" />
<vehicle id="N_S_430" type="standard_car" route="N_S" depart="430" departLane="random" departSpeed="10" />
<vehicle id="S_N_431" type="standard_car" route="S_N" depart="431" departLane="random" departSpeed="10" />
<vehicle id="E_W_433" type="standard_car" route="E_W" depart="433" departLane="random" departSpeed="10" />
<vehicle id="E_W_442" type="standard_car" route="E_W" depart="442" departLane="random" departSpeed="10" />
<vehicle id="E_W_444" type="standard_car" route="E_W" depart="444" departLane="random" departSpeed="10" />
<vehicle id="W_S_445" type="standard_car" route="W_S" depart="445" departLane="random" departSpeed="10" />
<vehicle id="W_S_448" type="standard_car" route="W_S" depart="448" departLane="random" departSpeed="10" />
<vehicle id="E_W_449" type="standard_car" route="E_W" depart="449" departLane="random" departSpeed="10" />
<vehicle id="W_E_452" type="standard_car" route="W_E" depart="452" departLane="random" departSpeed="10" />
<vehicle id="N_S_453" type="standard_car" route="N_S" depart="453" departLane="random" departSpeed="10" />
<vehicle id="W_S_453" type="standard_car" route="W_S" depart="453" departLane="random" departSpeed="10" />
<vehicle id="S_N_458" type="standard_car" route="S_N" depart="458" departLane="random" departSpeed="10" />
<vehicle id="W_E_459" type="standard_car" route="W_E" depart="459" departLane="random" departSpeed="10" />
<vehicle id="E_W_461" type="standard_car" route="E_W" depart="461" departLane="random" departSpeed="10" />
<vehicle id="E_S_461" type="standard_car" route="E_S" depart="461" departLane="random" departSpeed="10" />
<vehicle id="E_N_462" type="standard_car" route="E_N" depart="462" departLane="random" departSpeed="10" />
<vehicle id="N_S_464" type="standard_car" route="N_S" depart="464" departLane="random" departSpeed="10" />
<vehicle id="W_E_471" type="standard_car" route="W_E" depart="471" departLane="random" departSpeed="10" />
<vehicle id="W_N_475" type="standard_car" route="W_N" depart="475" departLane="random" departSpeed="10" />
<vehicle id="S_N_476" type="standard_car" route="S_N" depart="476" departLane="random" departSpeed="10" />
<vehicle id="E_W_482" type="standard_car" route="E_W" depart="482" departLane="random" departSpeed="10" />
<vehicle id="E_W_489" type="standard_car" route="E_W" depart="489" departLane="random" departSpeed="10" />
<vehicle id="W_S_489" type="standard_car" route="W_S" depart="489" departLane="random" departSpeed="10" />
<vehicle id="W_E_491" type="standard_car" route="W_E" depart="491" departLane="random" departSpeed="10" />
<vehicle id="N_W_493" type="standard_car" route="N_W" depart="493" departLane="random" departSpeed="10" />
<vehicle id="N_W_497" type="standard_car" route="N_W" depart="497" departLane="random" departSpeed="10" />
<vehicle id="E_N_510" type="standard_car" route="E_N" depart="510" departLane="random" departSpeed="10" />
<vehicle id="N_W_512" type="standard_car" route="N_W" depart="512" departLane="random" departSpeed="10" />
<vehicle id="S_N_519" type="standard_car" route="S_N" depart="519" departLane="random" departSpeed="10" />
<vehicle id="S_N_525" type="standard_car" route="S_N" depart="525" departLane="random" departSpeed="10" />
<vehicle id="N_E_527" type="standard_car" route="N_E" depart="527" departLane="random" departSpeed="10" />
<vehicle id="N_S_528" type="standard_car" route="N_S" depart="528" departLane="random" departSpeed="10" />
<vehicle id="N_W_532" type="standard_car" route="N_W" depart="532" departLane="random" departSpeed="10" />
<vehicle id="S_W_533" type="standard_car" route="S_W" depart="533" departLane="random" departSpeed="10" />
<vehicle id="E_N_537" type="standard_car" route="E_N" depart="537" departLane="random" departSpeed="10" />
<vehicle id="N_E_539" type="standard_car" route="N_E" depart="539" departLane="random" departSpeed="10" />
<vehicle id="E_W_543" type="standard_car" route="E_W" depart="543" departLane="random" departSpeed="10" />
<vehicle id="N_S_550" type="standard_car" route="N_S" depart="550" departLane="random" departSpeed="10" />
<vehicle id="W_S_553" type="standard_car" route="W_S" depart="553" departLane="random" departSpeed="10" />
<vehicle id="N_W_554" type="standard_car" route="N_W" depart="554" departLane="random" departSpeed="10" />
<vehicle id="N_S_556" type="standard_car" route="N_S" depart="556" departLane="random" departSpeed="10" />
<vehicle id="E_W_559" type="standard_car" route="E_W" depart="559" departLane="random" departSpeed="10" />
<vehicle id="E_W_563" type="standard_car" route="E_W" depart="563" departLane="random" departSpeed="10" />
<vehicle id="W_S_563" type="standard_car" route="W_S" depart="563" departLane="random" departSpeed="10" />
<vehicle id="E_W_570" type="standard_car" route="E_W" depart="570" departLane="random" departSpeed="10" />
<vehicle id="N_W_576" type="standard_car" route="N_W" depart="576" departLane="random" departSpeed="10" />
<vehicle id="E_N_582" type="standard_car" route="E_N" depart="582" departLane="random" departSpeed="10" />
<vehicle id="S_N_582" type="standard_car" route="S_N" depart="582" departLane="random" departSpeed="10" />
<vehicle id="E_W_592" type="standard_car" route="E_W" depart="592" departLane="random" departSpeed="10" />
<vehicle id="N_W_594" type="standard_car" route="N_W" depart="594" departLane="random" departSpeed="10" />
<vehicle id="S_E_602" type="standard_car" route="S_E" depart="602" departLane="random" departSpeed="10" />
<vehicle id="N_S_603" type="standard_car" route="N_S" depart="603" departLane="random" departSpeed="10" />
<vehicle id="N_S_608" type="standard_car" route="N_S" depart="608" departLane="random" departSpeed="10" />
<vehicle id="W_E_609" type="standard_car" route="W_E" depart="609" departLane="random" departSpeed="10" />
<vehicle id="S_W_611" type="standard_car" route="S_W" depart="611" departLane="random" departSpeed="10" />
<vehicle id="N_S_618" type="standard_car" route="N_S" depart="618" departLane="random" departSpeed="10" />
<vehicle id="W_E_624" type="standard_car" route="W_E" depart="624" departLane="random" departSpeed="10" />
<vehicle id="E_W_626" type="standard_car" route="E_W" depart="626" departLane="random" departSpeed="10" />
<vehicle id="S_E_626" type="standard_car" route="S_E" depart="626" departLane="random" departSpeed="10" />
<vehicle id="E_W_628" type="standard_car" route="E_W" depart="628" departLane="random" departSpeed="10" />
<vehicle id="E_W_629" type="standard_car" route="E_W" depart="629" departLane="random" departSpeed="10" />
<vehicle id="N_S_631" type="standard_car" route="N_S" depart="631" departLane="random" departSpeed="10" />
<vehicle id="S_N_635" type="standard_car" route="S_N" depart="635" departLane="random" departSpeed="10" />
<vehicle id="N_W_636" type="standard_car" route="N_W" depart="636" departLane="random" departSpeed="10" />
<vehicle id="W_S_638" type="standard_car" route="W_S" depart="638" departLane="random" departSpeed="10" />
<vehicle id="S_E_639" type="standard_car" route="S_E" depart="639" departLane="random" departSpeed="10" />
<vehicle id="S_N_645" type="standard_car" route="S_N" depart="645" departLane="random" departSpeed="10" />
<vehicle id="W_S_646" type="standard_car" route="W_S" depart="646" departLane="random" departSpeed="10" />
<vehicle id="S_N_647" type="standard_car" route="S_N" depart="647" departLane="random" departSpeed="10" />
<vehicle id="W_S_648" type="standard_car" route="W_S" depart="648" departLane="random" departSpeed="10" />
<vehicle id="S_N_648" type="standard_car" route="S_N" depart="648" departLane="random" departSpeed="10" />
<vehicle id="W_E_650" type="standard_car" route="W_E" depart="650" departLane="random" departSpeed="10" />
<vehicle id="E_N_655" type="standard_car" route="E_N" depart="655" departLane="random" departSpeed="10" />
<vehicle id="S_N_655" type="standard_car" route="S_N" depart="655" departLane="random" departSpeed="10" />
<vehicle id="W_S_656" type="standard_car" route="W_S" depart="656" departLane="random" departSpeed="10" />
<vehicle id="W_E_656" type="standard_car" route="W_E" depart="656" departLane="random" departSpeed="10" />
<vehicle id="W_E_659" type="standard_car" route="W_E" depart="659" departLane="random" departSpeed="10" />
<vehicle id="S_N_665" type="standard_car" route="S_N" depart="665" departLane="random" departSpeed="10" />
<vehicle id="E_W_667" type="standard_car" route="E_W" depart="667" departLane="random" departSpeed="10" />
<vehicle id="N_W_668" type="standard_car" route="N_W" depart="668" departLane="random" departSpeed="10" />
<vehicle id="N_S_670" type="standard_car" route="N_S" depart="670" departLane="random" departSpeed="10" />
<vehicle id="W_S_672" type="standard_car" route="W_S" depart="672" departLane="random" departSpeed="10" />
<vehicle id="S_N_676" type="standard_car" route="S_N" depart="676" departLane="random" departSpeed="10" />
<vehicle id="E_W_681" type="standard_car" route="E_W" depart="681" departLane="random" departSpeed="10" />
<vehicle id="N_S_681" type="standard_car" route="N_S" depart="681" departLane="random" departSpeed="10" />
<vehicle id="N_S_687" type="standard_car" route="N_S" depart="687" departLane="random" departSpeed="10" />
<vehicle id="S_N_696" type="standard_car" route="S_N" depart="696" departLane="random" departSpeed="10" />
<vehicle id="N_E_700" type="standard_car" route="N_E" depart="700" departLane="random" departSpeed="10" />
<vehicle id="N_W_707" type="standard_car" route="N_W" depart="707" departLane="random" departSpeed="10" />
<vehicle id="S_N_707" type="standard_car" route="S_N" depart="707" departLane="random" departSpeed="10" />
<vehicle id="N_S_714" type="standard_car" route="N_S" depart="714" departLane="random" departSpeed="10" />
<vehicle id="S_N_720" type="standard_car" route="S_N" depart="720" departLane="random" departSpeed="10" />
<vehicle id="S_E_727" type="standard_car" route="S_E" depart="727" departLane="random" departSpeed="10" />
<vehicle id="S_W_729" type="standard_car" route="S_W" depart="729" departLane="random" departSpeed="10" />
<vehicle id="N_E_731" type="standard_car" route="N_E" depart="731" departLane="random" departSpeed="10" />
<vehicle id="N_W_734" type="standard_car" route="N_W" depart="734" departLane="random" departSpeed="10" />
<vehicle id="W_E_734" type="standard_car" route="W_E" depart="734" departLane="random" departSpeed="10" />
<vehicle id="N_S_737" type="standard_car" route="N_S" depart="737" departLane="random" departSpeed="10" />
<vehicle id="W_S_744" type="standard_car" route="W_S" depart="744" departLane="random" departSpeed="10" />
<vehicle id="E_N_745" type="standard_car" route="E_N" depart="745" departLane="random" departSpeed="10" />
<vehicle id="N_W_745" type="standard_car" route="N_W" depart="745" departLane="random" departSpeed="10" />
<vehicle id="E_W_747" type="standard_car" route="E_W" depart="747" departLane="random" departSpeed="10" />
<vehicle id="N_E_747" type="standard_car" route="N_E" depart="747" departLane="random" departSpeed="10" />
<vehicle id="E_W_761" type="standard_car" route="E_W" depart="761" departLane="random" departSpeed="10" />
<vehicle id="W_E_761" type="standard_car" route="W_E" depart="761" departLane="random" departSpeed="10" />
<vehicle id="N_S_763" type="standard_car" route="N_S" depart="763" departLane="random" departSpeed="10" />
<vehicle id="E_W_764" type="standard_car" route="E_W" depart="764" departLane="random" departSpeed="10" />
<vehicle id="S_N_782" type="standard_car" route="S_N" depart="782" departLane="random" departSpeed="10" />
<vehicle id="W_E_789" type="standard_car" route="W_E" depart="789" departLane="random" departSpeed="10" />
<vehicle id="S_N_790" type="standard_car" route="S_N" depart="790" departLane="random" departSpeed="10" />
<vehicle id="S_W_793" type="standard_car" route="S_W" depart="793" departLane="random" departSpeed="10" />
<vehicle id="E_W_795" type="standard_car" route="E_W" depart="795" departLane="random" departSpeed="10" />
<vehicle id="W_S_795" type="standard_car" route="W_S" depart="795" departLane="random" departSpeed="10" />
<vehicle id="S_N_795" type="standard_car" route="S_N" depart="795" departLane="random" departSpeed="10" />
<vehicle id="N_W_796" type="standard_car" route="N_W" depart="796" departLane="random" departSpeed="10" />
<vehicle id="S_N_796" type="standard_car" route="S_N" depart="796" departLane="random" departSpeed="10" />
<vehicle id="N_E_800" type="standard_car" route="N_E" depart="800" departLane="random" departSpeed="10" />
<vehicle id="S_N_800" type="standard_car" route="S_N" depart="800" departLane="random" departSpeed="10" />
<vehicle id="E_N_802" type="standard_car" route="E_N" depart="802" departLane="random" departSpeed="10" />
<vehicle id="W_N_804" type="standard_car" route="W_N" depart="804" departLane="random" departSpeed="10" />
<vehicle id="W_S_805" type="standard_car" route="W_S" depart="805" departLane="random" departSpeed="10" />
<vehicle id="N_E_811" type="standard_car" route="N_E" depart="811" departLane="random" departSpeed="10" />
<vehicle id="N_S_812" type="standard_car" route="N_S" depart="812" departLane="random" departSpeed="10" />
<vehicle id="S_N_814" type="standard_car" route="S_N" depart="814" departLane="random" departSpeed="10" />
<vehicle id="W_S_817" type="standard_car" route="W_S" depart="817" departLane="random" departSpeed="10" />
<vehicle id="S_N_822" type="standard_car" route="S_N" depart="822" departLane="random" departSpeed="10" />
<vehicle id="N_W_825" type="standard_car" route="N_W" depart="825" departLane="random" departSpeed="10" />
<vehicle id="W_E_830" type="standard_car" route="W_E" depart="830" departLane="random" departSpeed="10" />
<vehicle id="W_N_830" type="standard_car" route="W_N" depart="830" departLane="random" departSpeed="10" />
<vehicle id="W_S_833" type="standard_car" route="W_S" depart="833" departLane="random" departSpeed="10" />
<vehicle id="S_E_836" type="standard_car" route="S_E" depart="836" departLane="random" departSpeed="10" />
<vehicle id="N_S_837" type="standard_car" route="N_S" depart="837" departLane="random" departSpeed="10" />
<vehicle id="N_S_842" type="standard_car" route="N_S" depart="842" departLane="random" departSpeed="10" />