<?xml version="1.0" encoding="UTF-8"?>

<!-- generated on 2021-11-12 12:44:42 by Eclipse SUMO netedit Version 1.10.0
<configuration xmlns:xsi="http://www.w3.org/2001/XMLSchema-instance" xsi:noNamespaceSchemaLocation="http://sumo.dlr.de/xsd/netconvertConfiguration.xsd">

    <output>
        <output-file value="C:\Users\mateu\Documents\studia\7semestr\studio_projektowe\source\net_test\my_net.net.xml"/>
    </output>

    <processing>
        <offset.disable-normalization value="true"/>
    </processing>

    <junctions>
        <no-turnarounds value="true"/>
    </junctions>

    <report>
        <aggregate-warnings value="5"/>
    </report>

</configuration>
-->

<net version="1.9" junctionCornerDetail="5" limitTurnSpeed="5.50" xmlns:xsi="http://www.w3.org/2001/XMLSchema-instance" xsi:noNamespaceSchemaLocation="http://sumo.dlr.de/xsd/net_file.xsd">

    <location netOffset="0.00,0.00" convBoundary="-200.00,-200.00,200.00,200.00" origBoundary="10000000000.00,10000000000.00,-10000000000.00,-10000000000.00" projParameter="!"/>

    <edge id=":0_0" function="internal">
        <lane id=":0_0_0" index="0" speed="6.51" length="9.03" shape="-11.20,16.80 -11.55,14.35 -12.60,12.60 -14.35,11.55 -16.80,11.20"/>
    </edge>
    <edge id=":0_1" function="internal">
        <lane id=":0_1_0" index="0" speed="13.89" length="33.60" shape="-11.20,16.80 -11.20,-16.80"/>
        <lane id=":0_1_1" index="1" speed="13.89" length="33.60" shape="-8.00,16.80 -8.00,-16.80"/>
        <lane id=":0_1_2" index="2" speed="13.89" length="33.60" shape="-4.80,16.80 -4.80,-16.80"/>
        <lane id=":0_1_3" index="3" speed="13.89" length="33.60" shape="-1.60,16.80 -1.60,-16.80"/>
    </edge>
    <edge id=":0_5" function="internal">
        <lane id=":0_5_0" index="0" speed="11.36" length="9.01" shape="-1.60,16.80 -0.45,8.75 -0.00,8.00"/>
    </edge>
    <edge id=":0_24" function="internal">
        <lane id=":0_24_0" index="0" speed="11.36" length="20.67" shape="-0.00,8.00 3.00,3.00 8.75,-0.45 16.80,-1.60"/>
    </edge>
    <edge id=":0_6" function="internal">
        <lane id=":0_6_0" index="0" speed="6.51" length="9.03" shape="16.80,11.20 14.35,11.55 12.60,12.60 11.55,14.35 11.20,16.80"/>
    </edge>
    <edge id=":0_7" function="internal">
        <lane id=":0_7_0" index="0" speed="13.89" length="33.60" shape="16.80,11.20 -16.80,11.20"/>
        <lane id=":0_7_1" index="1" speed="13.89" length="33.60" shape="16.80,8.00 -16.80,8.00"/>
        <lane id=":0_7_2" index="2" speed="13.89" length="33.60" shape="16.80,4.80 -16.80,4.80"/>
        <lane id=":0_7_3" index="3" speed="13.89" length="33.60" shape="16.80,1.60 -16.80,1.60"/>
    </edge>
    <edge id=":0_11" function="internal">
        <lane id=":0_11_0" index="0" speed="11.36" length="9.01" shape="16.80,1.60 8.75,0.45 8.00,0.00"/>
    </edge>
    <edge id=":0_25" function="internal">
        <lane id=":0_25_0" index="0" speed="11.36" length="20.67" shape="8.00,0.00 3.00,-3.00 -0.45,-8.75 -1.60,-16.80"/>
    </edge>
    <edge id=":0_12" function="internal">
        <lane id=":0_12_0" index="0" speed="6.51" length="9.03" shape="11.20,-16.80 11.55,-14.35 12.60,-12.60 14.35,-11.55 16.80,-11.20"/>
    </edge>
    <edge id=":0_13" function="internal">
        <lane id=":0_13_0" index="0" speed="13.89" length="33.60" shape="11.20,-16.80 11.20,16.80"/>
        <lane id=":0_13_1" index="1" speed="13.89" length="33.60" shape="8.00,-16.80 8.00,16.80"/>
        <lane id=":0_13_2" index="2" speed="13.89" length="33.60" shape="4.80,-16.80 4.80,16.80"/>
        <lane id=":0_13_3" index="3" speed="13.89" length="33.60" shape="1.60,-16.80 1.60,16.80"/>
    </edge>
    <edge id=":0_17" function="internal">
        <lane id=":0_17_0" index="0" speed="11.36" length="9.01" shape="1.60,-16.80 0.45,-8.75 0.00,-8.00"/>
    </edge>
    <edge id=":0_26" function="internal">
        <lane id=":0_26_0" index="0" speed="11.36" length="20.67" shape="0.00,-8.00 -3.00,-3.00 -8.75,0.45 -16.80,1.60"/>
    </edge>
    <edge id=":0_18" function="internal">
        <lane id=":0_18_0" index="0" speed="6.51" length="9.03" shape="-16.80,-11.20 -14.35,-11.55 -12.60,-12.60 -11.55,-14.35 -11.20,-16.80"/>
    </edge>
    <edge id=":0_19" function="internal">
        <lane id=":0_19_0" index="0" speed="13.89" length="33.60" shape="-16.80,-11.20 16.80,-11.20"/>
        <lane id=":0_19_1" index="1" speed="13.89" length="33.60" shape="-16.80,-8.00 16.80,-8.00"/>
        <lane id=":0_19_2" index="2" speed="13.89" length="33.60" shape="-16.80,-4.80 16.80,-4.80"/>
        <lane id=":0_19_3" index="3" speed="13.89" length="33.60" shape="-16.80,-1.60 16.80,-1.60"/>
    </edge>
    <edge id=":0_23" function="internal">
        <lane id=":0_23_0" index="0" speed="11.36" length="9.01" shape="-16.80,-1.60 -8.75,-0.45 -8.00,-0.00"/>
    </edge>
    <edge id=":0_27" function="internal">
        <lane id=":0_27_0" index="0" speed="11.36" length="20.67" shape="-8.00,-0.00 -3.00,3.00 0.45,8.75 1.60,16.80"/>
    </edge>

    <edge id="1i" from="1" to="0" priority="-1">
        <lane id="1i_0" index="0" speed="13.89" length="183.20" shape="200.00,11.20 16.80,11.20"/>
        <lane id="1i_1" index="1" speed="13.89" length="183.20" shape="200.00,8.00 16.80,8.00"/>
        <lane id="1i_2" index="2" speed="13.89" length="183.20" shape="200.00,4.80 16.80,4.80"/>
        <lane id="1i_3" index="3" speed="13.89" length="183.20" shape="200.00,1.60 16.80,1.60"/>
    </edge>
    <edge id="1o" from="0" to="1" priority="-1">
        <lane id="1o_0" index="0" speed="13.89" length="183.20" shape="16.80,-11.20 200.00,-11.20"/>
        <lane id="1o_1" index="1" speed="13.89" length="183.20" shape="16.80,-8.00 200.00,-8.00"/>
        <lane id="1o_2" index="2" speed="13.89" length="183.20" shape="16.80,-4.80 200.00,-4.80"/>
        <lane id="1o_3" index="3" speed="13.89" length="183.20" shape="16.80,-1.60 200.00,-1.60"/>
    </edge>
    <edge id="2i" from="2" to="0" priority="-1">
        <lane id="2i_0" index="0" speed="13.89" length="183.20" shape="-11.20,200.00 -11.20,16.80"/>
        <lane id="2i_1" index="1" speed="13.89" length="183.20" shape="-8.00,200.00 -8.00,16.80"/>
        <lane id="2i_2" index="2" speed="13.89" length="183.20" shape="-4.80,200.00 -4.80,16.80"/>
        <lane id="2i_3" index="3" speed="13.89" length="183.20" shape="-1.60,200.00 -1.60,16.80"/>
    </edge>
    <edge id="2o" from="0" to="2" priority="-1">
        <lane id="2o_0" index="0" speed="13.89" length="183.20" shape="11.20,16.80 11.20,200.00"/>
        <lane id="2o_1" index="1" speed="13.89" length="183.20" shape="8.00,16.80 8.00,200.00"/>
        <lane id="2o_2" index="2" speed="13.89" length="183.20" shape="4.80,16.80 4.80,200.00"/>
        <lane id="2o_3" index="3" speed="13.89" length="183.20" shape="1.60,16.80 1.60,200.00"/>
    </edge>
    <edge id="3i" from="3" to="0" priority="-1">
        <lane id="3i_0" index="0" speed="13.89" length="183.20" shape="-200.00,-11.20 -16.80,-11.20"/>
        <lane id="3i_1" index="1" speed="13.89" length="183.20" shape="-200.00,-8.00 -16.80,-8.00"/>
        <lane id="3i_2" index="2" speed="13.89" length="183.20" shape="-200.00,-4.80 -16.80,-4.80"/>
        <lane id="3i_3" index="3" speed="13.89" length="183.20" shape="-200.00,-1.60 -16.80,-1.60"/>
    </edge>
    <edge id="3o" from="0" to="3" priority="-1">
        <lane id="3o_0" index="0" speed="13.89" length="183.20" shape="-16.80,11.20 -200.00,11.20"/>
        <lane id="3o_1" index="1" speed="13.89" length="183.20" shape="-16.80,8.00 -200.00,8.00"/>
        <lane id="3o_2" index="2" speed="13.89" length="183.20" shape="-16.80,4.80 -200.00,4.80"/>
        <lane id="3o_3" index="3" speed="13.89" length="183.20" shape="-16.80,1.60 -200.00,1.60"/>
    </edge>
    <edge id="4i" from="4" to="0" priority="-1">
        <lane id="4i_0" index="0" speed="13.89" length="183.20" shape="11.20,-200.00 11.20,-16.80"/>
        <lane id="4i_1" index="1" speed="13.89" length="183.20" shape="8.00,-200.00 8.00,-16.80"/>
        <lane id="4i_2" index="2" speed="13.89" length="183.20" shape="4.80,-200.00 4.80,-16.80"/>
        <lane id="4i_3" index="3" speed="13.89" length="183.20" shape="1.60,-200.00 1.60,-16.80"/>
    </edge>
    <edge id="4o" from="0" to="4" priority="-1">
        <lane id="4o_0" index="0" speed="13.89" length="183.20" shape="-11.20,-16.80 -11.20,-200.00"/>
        <lane id="4o_1" index="1" speed="13.89" length="183.20" shape="-8.00,-16.80 -8.00,-200.00"/>
        <lane id="4o_2" index="2" speed="13.89" length="183.20" shape="-4.80,-16.80 -4.80,-200.00"/>
        <lane id="4o_3" index="3" speed="13.89" length="183.20" shape="-1.60,-16.80 -1.60,-200.00"/>
    </edge>

    <tlLogic id="0" type="static" programID="0" offset="0">
        <phase duration="42" state="GGGGGgrrrrrrGGGGGgrrrrrr"/>
        <phase duration="3"  state="yyyyyyrrrrrryyyyyyrrrrrr"/>
        <phase duration="42" state="rrrrrrGGGGGgrrrrrrGGGGGg"/>
        <phase duration="3"  state="rrrrrryyyyyyrrrrrryyyyyy"/>
    </tlLogic>

    <junction id="0" type="traffic_light" x="0.00" y="0.00" incLanes="2i_0 2i_1 2i_2 2i_3 1i_0 1i_1 1i_2 1i_3 4i_0 4i_1 4i_2 4i_3 3i_0 3i_1 3i_2 3i_3" intLanes=":0_0_0 :0_1_0 :0_1_1 :0_1_2 :0_1_3 :0_24_0 :0_6_0 :0_7_0 :0_7_1 :0_7_2 :0_7_3 :0_25_0 :0_12_0 :0_13_0 :0_13_1 :0_13_2 :0_13_3 :0_26_0 :0_18_0 :0_19_0 :0_19_1 :0_19_2 :0_19_3 :0_27_0" shape="-12.80,16.80 12.80,16.80 13.24,14.58 13.80,13.80 14.58,13.24 15.58,12.91 16.80,12.80 16.80,-12.80 14.58,-13.24 13.80,-13.80 13.24,-14.58 12.91,-15.58 12.80,-16.80 -12.80,-16.80 -13.24,-14.58 -13.80,-13.80 -14.58,-13.24 -15.58,-12.91 -16.80,-12.80 -16.80,12.80 -14.58,13.24 -13.80,13.80 -13.24,14.58 -12.91,15.58">
        <request index="0"  response="000000000000000000000000" foes="000000000000011110000000" cont="0"/>
        <request index="1"  response="100000000000100000000000" foes="111111100000111110000000" cont="0"/>
        <request index="2"  response="100000000000100000000000" foes="111111100000111110000000" cont="0"/>
        <request index="3"  response="100000000000100000000000" foes="111111100000111110000000" cont="0"/>
        <request index="4"  response="100000000000100000000000" foes="111111100000111110000000" cont="0"/>
        <request index="5"  response="100000011110100000000000" foes="111110011110111110000000" cont="1"/>
        <request index="6"  response="000000011110000000000000" foes="000000011110000000000000" cont="0"/>
        <request index="7"  response="000000111110000000111111" foes="100000111110000000111111" cont="0"/>
        <request index="8"  response="000000111110000000111111" foes="100000111110000000111111" cont="0"/>
        <request index="9"  response="000000111110000000111111" foes="100000111110000000111111" cont="0"/>
        <request index="10" response="000000111110000000111111" foes="100000111110000000111111" cont="0"/>
        <request index="11" response="011110111110000000111110" foes="011110111110000000111110" cont="1"/>
        <request index="12" response="000000000000000000000000" foes="011110000000000000000000" cont="0"/>
        <request index="13" response="100000000000100000000000" foes="111110000000111111100000" cont="0"/>
        <request index="14" response="100000000000100000000000" foes="111110000000111111100000" cont="0"/>
        <request index="15" response="100000000000100000000000" foes="111110000000111111100000" cont="0"/>
        <request index="16" response="100000000000100000000000" foes="111110000000111111100000" cont="0"/>
        <request index="17" response="100000000000100000011110" foes="111110000000111110011110" cont="1"/>
        <request index="18" response="000000000000000000011110" foes="000000000000000000011110" cont="0"/>
        <request index="19" response="000000111111000000111110" foes="000000111111100000111110" cont="0"/>
        <request index="20" response="000000111111000000111110" foes="000000111111100000111110" cont="0"/>
        <request index="21" response="000000111111000000111110" foes="000000111111100000111110" cont="0"/>
        <request index="22" response="000000111111000000111110" foes="000000111111100000111110" cont="0"/>
        <request index="23" response="000000111110011110111110" foes="000000111110011110111110" cont="1"/>
    </junction>
    <junction id="1" type="dead_end" x="200.00" y="0.00" incLanes="1o_0 1o_1 1o_2 1o_3" intLanes="" shape="200.00,0.00 200.00,-12.80 200.00,0.00"/>
    <junction id="2" type="dead_end" x="0.00" y="200.00" incLanes="2o_0 2o_1 2o_2 2o_3" intLanes="" shape="0.00,200.00 12.80,200.00 0.00,200.00"/>
    <junction id="3" type="dead_end" x="-200.00" y="0.00" incLanes="3o_0 3o_1 3o_2 3o_3" intLanes="" shape="-200.00,0.00 -200.00,12.80 -200.00,0.00"/>
    <junction id="4" type="dead_end" x="0.00" y="-200.00" incLanes="4o_0 4o_1 4o_2 4o_3" intLanes="" shape="0.00,-200.00 -12.80,-200.00 0.00,-200.00"/>

    <junction id=":0_24_0" type="internal" x="-0.00" y="8.00" incLanes=":0_5_0 4i_0 4i_1 4i_2 4i_3" intLanes=":0_7_0 :0_7_1 :0_7_2 :0_7_3 :0_11_0 :0_12_0 :0_13_0 :0_13_1 :0_13_2 :0_13_3 :0_19_0 :0_19_1 :0_19_2 :0_19_3 :0_23_0"/>
    <junction id=":0_25_0" type="internal" x="8.00" y="0.00" incLanes=":0_11_0 3i_0 3i_1 3i_2 3i_3" intLanes=":0_1_0 :0_1_1 :0_1_2 :0_1_3 :0_5_0 :0_13_0 :0_13_1 :0_13_2 :0_13_3 :0_17_0 :0_18_0 :0_19_0 :0_19_1 :0_19_2 :0_19_3"/>
    <junction id=":0_26_0" type="internal" x="0.00" y="-8.00" incLanes=":0_17_0 2i_0 2i_1 2i_2 2i_3" intLanes=":0_0_0 :0_1_0 :0_1_1 :0_1_2 :0_1_3 :0_7_0 :0_7_1 :0_7_2 :0_7_3 :0_11_0 :0_19_0 :0_19_1 :0_19_2 :0_19_3 :0_23_0"/>
    <junction id=":0_27_0" type="internal" x="-8.00" y="-0.00" incLanes=":0_23_0 1i_0 1i_1 1i_2 1i_3" intLanes=":0_1_0 :0_1_1 :0_1_2 :0_1_3 :0_5_0 :0_6_0 :0_7_0 :0_7_1 :0_7_2 :0_7_3 :0_13_0 :0_13_1 :0_13_2 :0_13_3 :0_17_0"/>

    <connection from="1i" to="2o" fromLane="0" toLane="0" via=":0_6_0" tl="0" linkIndex="6" dir="r" state="o"/>
    <connection from="1i" to="3o" fromLane="0" toLane="0" via=":0_7_0" tl="0" linkIndex="7" dir="s" state="o"/>
    <connection from="1i" to="3o" fromLane="1" toLane="1" via=":0_7_1" tl="0" linkIndex="8" dir="s" state="o"/>
    <connection from="1i" to="3o" fromLane="2" toLane="2" via=":0_7_2" tl="0" linkIndex="9" dir="s" state="o"/>
    <connection from="1i" to="3o" fromLane="3" toLane="3" via=":0_7_3" tl="0" linkIndex="10" dir="s" state="o"/>
    <connection from="1i" to="4o" fromLane="3" toLane="3" via=":0_11_0" tl="0" linkIndex="11" dir="l" state="o"/>
    <connection from="2i" to="3o" fromLane="0" toLane="0" via=":0_0_0" tl="0" linkIndex="0" dir="r" state="O"/>
    <connection from="2i" to="4o" fromLane="0" toLane="0" via=":0_1_0" tl="0" linkIndex="1" dir="s" state="O"/>
    <connection from="2i" to="4o" fromLane="1" toLane="1" via=":0_1_1" tl="0" linkIndex="2" dir="s" state="O"/>
    <connection from="2i" to="4o" fromLane="2" toLane="2" via=":0_1_2" tl="0" linkIndex="3" dir="s" state="O"/>
    <connection from="2i" to="4o" fromLane="3" toLane="3" via=":0_1_3" tl="0" linkIndex="4" dir="s" state="O"/>
    <connection from="2i" to="1o" fromLane="3" toLane="3" via=":0_5_0" tl="0" linkIndex="5" dir="l" state="o"/>
    <connection from="3i" to="4o" fromLane="0" toLane="0" via=":0_18_0" tl="0" linkIndex="18" dir="r" state="o"/>
    <connection from="3i" to="1o" fromLane="0" toLane="0" via=":0_19_0" tl="0" linkIndex="19" dir="s" state="o"/>
    <connection from="3i" to="1o" fromLane="1" toLane="1" via=":0_19_1" tl="0" linkIndex="20" dir="s" state="o"/>
    <connection from="3i" to="1o" fromLane="2" toLane="2" via=":0_19_2" tl="0" linkIndex="21" dir="s" state="o"/>
    <connection from="3i" to="1o" fromLane="3" toLane="3" via=":0_19_3" tl="0" linkIndex="22" dir="s" state="o"/>
    <connection from="3i" to="2o" fromLane="3" toLane="3" via=":0_23_0" tl="0" linkIndex="23" dir="l" state="o"/>
    <connection from="4i" to="1o" fromLane="0" toLane="0" via=":0_12_0" tl="0" linkIndex="12" dir="r" state="O"/>
    <connection from="4i" to="2o" fromLane="0" toLane="0" via=":0_13_0" tl="0" linkIndex="13" dir="s" state="O"/>
    <connection from="4i" to="2o" fromLane="1" toLane="1" via=":0_13_1" tl="0" linkIndex="14" dir="s" state="O"/>
    <connection from="4i" to="2o" fromLane="2" toLane="2" via=":0_13_2" tl="0" linkIndex="15" dir="s" state="O"/>
    <connection from="4i" to="2o" fromLane="3" toLane="3" via=":0_13_3" tl="0" linkIndex="16" dir="s" state="O"/>
    <connection from="4i" to="3o" fromLane="3" toLane="3" via=":0_17_0" tl="0" linkIndex="17" dir="l" state="o"/>

    <connection from=":0_0" to="3o" fromLane="0" toLane="0" dir="r" state="M"/>
    <connection from=":0_1" to="4o" fromLane="0" toLane="0" dir="s" state="M"/>
    <connection from=":0_1" to="4o" fromLane="1" toLane="1" dir="s" state="M"/>
    <connection from=":0_1" to="4o" fromLane="2" toLane="2" dir="s" state="M"/>
    <connection from=":0_1" to="4o" fromLane="3" toLane="3" dir="s" state="M"/>
    <connection from=":0_5" to="1o" fromLane="0" toLane="3" via=":0_24_0" dir="l" state="m"/>
    <connection from=":0_24" to="1o" fromLane="0" toLane="3" dir="l" state="M"/>
    <connection from=":0_6" to="2o" fromLane="0" toLane="0" dir="r" state="M"/>
    <connection from=":0_7" to="3o" fromLane="0" toLane="0" dir="s" state="M"/>
    <connection from=":0_7" to="3o" fromLane="1" toLane="1" dir="s" state="M"/>
    <connection from=":0_7" to="3o" fromLane="2" toLane="2" dir="s" state="M"/>
    <connection from=":0_7" to="3o" fromLane="3" toLane="3" dir="s" state="M"/>
    <connection from=":0_11" to="4o" fromLane="0" toLane="3" via=":0_25_0" dir="l" state="m"/>
    <connection from=":0_25" to="4o" fromLane="0" toLane="3" dir="l" state="M"/>
    <connection from=":0_12" to="1o" fromLane="0" toLane="0" dir="r" state="M"/>
    <connection from=":0_13" to="2o" fromLane="0" toLane="0" dir="s" state="M"/>
    <connection from=":0_13" to="2o" fromLane="1" toLane="1" dir="s" state="M"/>
    <connection from=":0_13" to="2o" fromLane="2" toLane="2" dir="s" state="M"/>
    <connection from=":0_13" to="2o" fromLane="3" toLane="3" dir="s" state="M"/>
    <connection from=":0_17" to="3o" fromLane="0" toLane="3" via=":0_26_0" dir="l" state="m"/>
    <connection from=":0_26" to="3o" fromLane="0" toLane="3" dir="l" state="M"/>
    <connection from=":0_18" to="4o" fromLane="0" toLane="0" dir="r" state="M"/>
    <connection from=":0_19" to="1o" fromLane="0" toLane="0" dir="s" state="M"/>
    <connection from=":0_19" to="1o" fromLane="1" toLane="1" dir="s" state="M"/>
    <connection from=":0_19" to="1o" fromLane="2" toLane="2" dir="s" state="M"/>
    <connection from=":0_19" to="1o" fromLane="3" toLane="3" dir="s" state="M"/>
    <connection from=":0_23" to="2o" fromLane="0" toLane="3" via=":0_27_0" dir="l" state="m"/>
    <connection from=":0_27" to="2o" fromLane="0" toLane="3" dir="l" state="M"/>

</net>
