<routes>
        <vType id="car" accel="0.8" decel="4.5" sigma="0.5" length="5" minGap="2.5" maxSpeed="16.67" guiShape="passenger"/>

        <route id="right" edges="3i 1o" />
        <route id="left" edges="1i 3o" />
        <route id="down" edges="2i 4o" />
        <route id="up" edges="4i 2o" />
    <vehicle id="left_0" type="car" route="left" depart="0" />
    <vehicle id="down_1" type="car" route="down" depart="0" />
    <vehicle id="up_2" type="car" route="up" depart="0" />
    <vehicle id="up_3" type="car" route="up" depart="1" />
    <vehicle id="left_4" type="car" route="left" depart="2" />
    <vehicle id="down_5" type="car" route="down" depart="2" />
    <vehicle id="right_6" type="car" route="right" depart="3" />
    <vehicle id="left_7" type="car" route="left" depart="3" />
    <vehicle id="down_8" type="car" route="down" depart="3" />
    <vehicle id="right_9" type="car" route="right" depart="4" />
    <vehicle id="up_10" type="car" route="up" depart="4" />
    <vehicle id="down_11" type="car" route="down" depart="5" />
    <vehicle id="up_12" type="car" route="up" depart="5" />
    <vehicle id="down_13" type="car" route="down" depart="6" />
    <vehicle id="up_14" type="car" route="up" depart="6" />
    <vehicle id="down_15" type="car" route="down" depart="8" />
    <vehicle id="left_16" type="car" route="left" depart="10" />
    <vehicle id="down_17" type="car" route="down" depart="10" />
    <vehicle id="up_18" type="car" route="up" depart="10" />
    <vehicle id="right_19" type="car" route="right" depart="11" />
    <vehicle id="left_20" type="car" route="left" depart="11" />
    <vehicle id="down_21" type="car" route="down" depart="11" />
    <vehicle id="up_22" type="car" route="up" depart="11" />
    <vehicle id="down_23" type="car" route="down" depart="12" />
    <vehicle id="up_24" type="car" route="up" depart="12" />
    <vehicle id="right_25" type="car" route="right" depart="13" />
    <vehicle id="down_26" type="car" route="down" depart="13" />
    <vehicle id="right_27" type="car" route="right" depart="14" />
    <vehicle id="down_28" type="car" route="down" depart="14" />
    <vehicle id="up_29" type="car" route="up" depart="14" />
    <vehicle id="down_30" type="car" route="down" depart="15" />
    <vehicle id="down_31" type="car" route="down" depart="16" />
    <vehicle id="up_32" type="car" route="up" depart="16" />
    <vehicle id="right_33" type="car" route="right" depart="17" />
    <vehicle id="left_34" type="car" route="left" depart="17" />
    <vehicle id="down_35" type="car" route="down" depart="17" />
    <vehicle id="left_36" type="car" route="left" depart="18" />
    <vehicle id="down_37" type="car" route="down" depart="18" />
    <vehicle id="up_38" type="car" route="up" depart="18" />
    <vehicle id="down_39" type="car" route="down" depart="19" />
    <vehicle id="up_40" type="car" route="up" depart="19" />
    <vehicle id="left_41" type="car" route="left" depart="20" />
    <vehicle id="down_42" type="car" route="down" depart="20" />
    <vehicle id="left_43" type="car" route="left" depart="21" />
    <vehicle id="right_44" type="car" route="right" depart="22" />
    <vehicle id="left_45" type="car" route="left" depart="22" />
    <vehicle id="down_46" type="car" route="down" depart="22" />
    <vehicle id="down_47" type="car" route="down" depart="23" />
    <vehicle id="up_48" type="car" route="up" depart="23" />
    <vehicle id="right_49" type="car" route="right" depart="25" />
    <vehicle id="right_50" type="car" route="right" depart="26" />
    <vehicle id="down_51" type="car" route="down" depart="26" />
    <vehicle id="up_52" type="car" route="up" depart="27" />
    <vehicle id="left_53" type="car" route="left" depart="28" />
    <vehicle id="right_54" type="car" route="right" depart="29" />
    <vehicle id="down_55" type="car" route="down" depart="29" />
    <vehicle id="up_56" type="car" route="up" depart="29" />
    <vehicle id="right_57" type="car" route="right" depart="31" />
    <vehicle id="left_58" type="car" route="left" depart="31" />
    <vehicle id="down_59" type="car" route="down" depart="31" />
    <vehicle id="down_60" type="car" route="down" depart="32" />
    <vehicle id="up_61" type="car" route="up" depart="32" />
    <vehicle id="down_62" type="car" route="down" depart="33" />
    <vehicle id="right_63" type="car" route="right" depart="34" />
    <vehicle id="up_64" type="car" route="up" depart="34" />
    <vehicle id="down_65" type="car" route="down" depart="35" />
    <vehicle id="left_66" type="car" route="left" depart="36" />
    <vehicle id="down_67" type="car" route="down" depart="36" />
    <vehicle id="right_68" type="car" route="right" depart="37" />
    <vehicle id="left_69" type="car" route="left" depart="37" />
    <vehicle id="down_70" type="car" route="down" depart="38" />
    <vehicle id="up_71" type="car" route="up" depart="38" />
    <vehicle id="down_72" type="car" route="down" depart="39" />
    <vehicle id="up_73" type="car" route="up" depart="39" />
    <vehicle id="right_74" type="car" route="right" depart="40" />
    <vehicle id="down_75" type="car" route="down" depart="40" />
    <vehicle id="left_76" type="car" route="left" depart="41" />
    <vehicle id="down_77" type="car" route="down" depart="41" />
    <vehicle id="right_78" type="car" route="right" depart="42" />
    <vehicle id="left_79" type="car" route="left" depart="42" />
    <vehicle id="up_80" type="car" route="up" depart="43" />
    <vehicle id="right_81" type="car" route="right" depart="44" />
    <vehicle id="down_82" type="car" route="down" depart="44" />
    <vehicle id="up_83" type="car" route="up" depart="45" />
    <vehicle id="up_84" type="car" route="up" depart="46" />
    <vehicle id="right_85" type="car" route="right" depart="47" />
    <vehicle id="down_86" type="car" route="down" depart="47" />
    <vehicle id="up_87" type="car" route="up" depart="47" />
    <vehicle id="right_88" type="car" route="right" depart="48" />
    <vehicle id="down_89" type="car" route="down" depart="48" />
    <vehicle id="left_90" type="car" route="left" depart="49" />
    <vehicle id="up_91" type="car" route="up" depart="50" />
    <vehicle id="left_92" type="car" route="left" depart="51" />
    <vehicle id="down_93" type="car" route="down" depart="51" />
    <vehicle id="up_94" type="car" route="up" depart="51" />
    <vehicle id="down_95" type="car" route="down" depart="52" />
    <vehicle id="down_96" type="car" route="down" depart="54" />
    <vehicle id="up_97" type="car" route="up" depart="54" />
    <vehicle id="down_98" type="car" route="down" depart="55" />
    <vehicle id="right_99" type="car" route="right" depart="56" />
    <vehicle id="down_100" type="car" route="down" depart="56" />
    <vehicle id="right_101" type="car" route="right" depart="57" />
    <vehicle id="down_102" type="car" route="down" depart="57" />
    <vehicle id="up_103" type="car" route="up" depart="57" />
    <vehicle id="down_104" type="car" route="down" depart="58" />
    <vehicle id="up_105" type="car" route="up" depart="58" />
    <vehicle id="left_106" type="car" route="left" depart="59" />
    <vehicle id="down_107" type="car" route="down" depart="59" />
    <vehicle id="down_108" type="car" route="down" depart="60" />
    <vehicle id="right_109" type="car" route="right" depart="61" />
    <vehicle id="down_110" type="car" route="down" depart="61" />
    <vehicle id="up_111" type="car" route="up" depart="61" />
    <vehicle id="left_112" type="car" route="left" depart="62" />
    <vehicle id="down_113" type="car" route="down" depart="62" />
    <vehicle id="right_114" type="car" route="right" depart="63" />
    <vehicle id="right_115" type="car" route="right" depart="64" />
    <vehicle id="left_116" type="car" route="left" depart="64" />
    <vehicle id="down_117" type="car" route="down" depart="64" />
    <vehicle id="down_118" type="car" route="down" depart="65" />
    <vehicle id="up_119" type="car" route="up" depart="65" />
    <vehicle id="down_120" type="car" route="down" depart="66" />
    <vehicle id="left_121" type="car" route="left" depart="67" />
    <vehicle id="up_122" type="car" route="up" depart="67" />
    <vehicle id="down_123" type="car" route="down" depart="68" />
    <vehicle id="up_124" type="car" route="up" depart="68" />
    <vehicle id="right_125" type="car" route="right" depart="69" />
    <vehicle id="down_126" type="car" route="down" depart="69" />
    <vehicle id="left_127" type="car" route="left" depart="70" />
    <vehicle id="down_128" type="car" route="down" depart="70" />
    <vehicle id="up_129" type="car" route="up" depart="70" />
    <vehicle id="up_130" type="car" route="up" depart="71" />
    <vehicle id="left_131" type="car" route="left" depart="72" />
    <vehicle id="down_132" type="car" route="down" depart="72" />
    <vehicle id="left_133" type="car" route="left" depart="73" />
    <vehicle id="left_134" type="car" route="left" depart="74" />
    <vehicle id="down_135" type="car" route="down" depart="74" />
    <vehicle id="right_136" type="car" route="right" depart="76" />
    <vehicle id="left_137" type="car" route="left" depart="76" />
    <vehicle id="down_138" type="car" route="down" depart="76" />
    <vehicle id="up_139" type="car" route="up" depart="77" />
    <vehicle id="right_140" type="car" route="right" depart="78" />
    <vehicle id="left_141" type="car" route="left" depart="78" />
    <vehicle id="down_142" type="car" route="down" depart="79" />
    <vehicle id="right_143" type="car" route="right" depart="81" />
    <vehicle id="down_144" type="car" route="down" depart="81" />
    <vehicle id="up_145" type="car" route="up" depart="82" />
    <vehicle id="left_146" type="car" route="left" depart="83" />
    <vehicle id="right_147" type="car" route="right" depart="84" />
    <vehicle id="down_148" type="car" route="down" depart="84" />
    <vehicle id="up_149" type="car" route="up" depart="84" />
    <vehicle id="left_150" type="car" route="left" depart="85" />
    <vehicle id="down_151" type="car" route="down" depart="85" />
    <vehicle id="up_152" type="car" route="up" depart="85" />
    <vehicle id="right_153" type="car" route="right" depart="86" />
    <vehicle id="up_154" type="car" route="up" depart="86" />
    <vehicle id="left_155" type="car" route="left" depart="88" />
    <vehicle id="up_156" type="car" route="up" depart="88" />
    <vehicle id="left_157" type="car" route="left" depart="89" />
    <vehicle id="down_158" type="car" route="down" depart="89" />
    <vehicle id="left_159" type="car" route="left" depart="90" />
    <vehicle id="down_160" type="car" route="down" depart="90" />
    <vehicle id="down_161" type="car" route="down" depart="91" />
    <vehicle id="right_162" type="car" route="right" depart="92" />
    <vehicle id="down_163" type="car" route="down" depart="92" />
    <vehicle id="down_164" type="car" route="down" depart="93" />
    <vehicle id="up_165" type="car" route="up" depart="93" />
    <vehicle id="left_166" type="car" route="left" depart="94" />
    <vehicle id="down_167" type="car" route="down" depart="94" />
    <vehicle id="left_168" type="car" route="left" depart="95" />
    <vehicle id="down_169" type="car" route="down" depart="95" />
    <vehicle id="left_170" type="car" route="left" depart="96" />
    <vehicle id="down_171" type="car" route="down" depart="96" />
    <vehicle id="right_172" type="car" route="right" depart="98" />
    <vehicle id="down_173" type="car" route="down" depart="98" />
    <vehicle id="up_174" type="car" route="up" depart="98" />
    <vehicle id="down_175" type="car" route="down" depart="99" />
    <vehicle id="left_176" type="car" route="left" depart="100" />
    <vehicle id="down_177" type="car" route="down" depart="100" />
    <vehicle id="left_178" type="car" route="left" depart="101" />
    <vehicle id="down_179" type="car" route="down" depart="101" />
    <vehicle id="left_180" type="car" route="left" depart="103" />
    <vehicle id="down_181" type="car" route="down" depart="103" />
    <vehicle id="up_182" type="car" route="up" depart="103" />
    <vehicle id="right_183" type="car" route="right" depart="104" />
    <vehicle id="up_184" type="car" route="up" depart="104" />
    <vehicle id="down_185" type="car" route="down" depart="105" />
    <vehicle id="left_186" type="car" route="left" depart="106" />
    <vehicle id="down_187" type="car" route="down" depart="106" />
    <vehicle id="up_188" type="car" route="up" depart="106" />
    <vehicle id="down_189" type="car" route="down" depart="107" />
    <vehicle id="right_190" type="car" route="right" depart="108" />
    <vehicle id="down_191" type="car" route="down" depart="108" />
    <vehicle id="up_192" type="car" route="up" depart="108" />
    <vehicle id="right_193" type="car" route="right" depart="109" />
    <vehicle id="down_194" type="car" route="down" depart="109" />
    <vehicle id="down_195" type="car" route="down" depart="110" />
    <vehicle id="left_196" type="car" route="left" depart="113" />
    <vehicle id="down_197" type="car" route="down" depart="113" />
    <vehicle id="down_198" type="car" route="down" depart="114" />
    <vehicle id="up_199" type="car" route="up" depart="114" />
    <vehicle id="right_200" type="car" route="right" depart="115" />
    <vehicle id="left_201" type="car" route="left" depart="115" />
    <vehicle id="down_202" type="car" route="down" depart="115" />
    <vehicle id="up_203" type="car" route="up" depart="115" />
    <vehicle id="left_204" type="car" route="left" depart="116" />
    <vehicle id="down_205" type="car" route="down" depart="116" />
    <vehicle id="left_206" type="car" route="left" depart="117" />
    <vehicle id="down_207" type="car" route="down" depart="117" />
    <vehicle id="left_208" type="car" route="left" depart="118" />
    <vehicle id="down_209" type="car" route="down" depart="118" />
    <vehicle id="left_210" type="car" route="left" depart="120" />
    <vehicle id="down_211" type="car" route="down" depart="120" />
    <vehicle id="down_212" type="car" route="down" depart="121" />
    <vehicle id="down_213" type="car" route="down" depart="122" />
    <vehicle id="up_214" type="car" route="up" depart="122" />
    <vehicle id="left_215" type="car" route="left" depart="123" />
    <vehicle id="down_216" type="car" route="down" depart="123" />
    <vehicle id="left_217" type="car" route="left" depart="124" />
    <vehicle id="down_218" type="car" route="down" depart="124" />
    <vehicle id="up_219" type="car" route="up" depart="124" />
    <vehicle id="left_220" type="car" route="left" depart="125" />
    <vehicle id="down_221" type="car" route="down" depart="125" />
    <vehicle id="right_222" type="car" route="right" depart="126" />
    <vehicle id="down_223" type="car" route="down" depart="126" />
    <vehicle id="right_224" type="car" route="right" depart="127" />
    <vehicle id="down_225" type="car" route="down" depart="127" />
    <vehicle id="up_226" type="car" route="up" depart="127" />
    <vehicle id="right_227" type="car" route="right" depart="129" />
    <vehicle id="left_228" type="car" route="left" depart="129" />
    <vehicle id="down_229" type="car" route="down" depart="129" />
    <vehicle id="down_230" type="car" route="down" depart="130" />
    <vehicle id="up_231" type="car" route="up" depart="131" />
    <vehicle id="right_232" type="car" route="right" depart="132" />
    <vehicle id="left_233" type="car" route="left" depart="132" />
    <vehicle id="down_234" type="car" route="down" depart="132" />
    <vehicle id="left_235" type="car" route="left" depart="133" />
    <vehicle id="right_236" type="car" route="right" depart="134" />
    <vehicle id="up_237" type="car" route="up" depart="134" />
    <vehicle id="down_238" type="car" route="down" depart="135" />
    <vehicle id="up_239" type="car" route="up" depart="135" />
    <vehicle id="right_240" type="car" route="right" depart="136" />
    <vehicle id="up_241" type="car" route="up" depart="136" />
    <vehicle id="left_242" type="car" route="left" depart="137" />
    <vehicle id="right_243" type="car" route="right" depart="138" />
    <vehicle id="right_244" type="car" route="right" depart="139" />
    <vehicle id="up_245" type="car" route="up" depart="139" />
    <vehicle id="down_246" type="car" route="down" depart="140" />
    <vehicle id="up_247" type="car" route="up" depart="140" />
    <vehicle id="down_248" type="car" route="down" depart="141" />
    <vehicle id="down_249" type="car" route="down" depart="143" />
    <vehicle id="down_250" type="car" route="down" depart="144" />
    <vehicle id="right_251" type="car" route="right" depart="145" />
    <vehicle id="up_252" type="car" route="up" depart="145" />
    <vehicle id="left_253" type="car" route="left" depart="146" />
    <vehicle id="down_254" type="car" route="down" depart="146" />
    <vehicle id="left_255" type="car" route="left" depart="147" />
    <vehicle id="up_256" type="car" route="up" depart="147" />
    <vehicle id="right_257" type="car" route="right" depart="148" />
    <vehicle id="down_258" type="car" route="down" depart="148" />
    <vehicle id="left_259" type="car" route="left" depart="149" />
    <vehicle id="down_260" type="car" route="down" depart="149" />
    <vehicle id="right_261" type="car" route="right" depart="150" />
    <vehicle id="down_262" type="car" route="down" depart="150" />
    <vehicle id="down_263" type="car" route="down" depart="151" />
    <vehicle id="right_264" type="car" route="right" depart="152" />
    <vehicle id="left_265" type="car" route="left" depart="152" />
    <vehicle id="up_266" type="car" route="up" depart="152" />
    <vehicle id="down_267" type="car" route="down" depart="153" />
    <vehicle id="left_268" type="car" route="left" depart="154" />
    <vehicle id="up_269" type="car" route="up" depart="154" />
    <vehicle id="right_270" type="car" route="right" depart="155" />
    <vehicle id="left_271" type="car" route="left" depart="155" />
    <vehicle id="down_272" type="car" route="down" depart="155" />
    <vehicle id="up_273" type="car" route="up" depart="155" />
    <vehicle id="down_274" type="car" route="down" depart="156" />
    <vehicle id="up_275" type="car" route="up" depart="156" />
    <vehicle id="right_276" type="car" route="right" depart="158" />
    <vehicle id="left_277" type="car" route="left" depart="158" />
    <vehicle id="down_278" type="car" route="down" depart="158" />
    <vehicle id="up_279" type="car" route="up" depart="158" />
    <vehicle id="right_280" type="car" route="right" depart="159" />
    <vehicle id="left_281" type="car" route="left" depart="159" />
    <vehicle id="down_282" type="car" route="down" depart="159" />
    <vehicle id="up_283" type="car" route="up" depart="159" />
    <vehicle id="up_284" type="car" route="up" depart="160" />
    <vehicle id="down_285" type="car" route="down" depart="162" />
    <vehicle id="up_286" type="car" route="up" depart="162" />
    <vehicle id="right_287" type="car" route="right" depart="164" />
    <vehicle id="down_288" type="car" route="down" depart="164" />
    <vehicle id="up_289" type="car" route="up" depart="164" />
    <vehicle id="left_290" type="car" route="left" depart="165" />
    <vehicle id="up_291" type="car" route="up" depart="165" />
    <vehicle id="up_292" type="car" route="up" depart="166" />
    <vehicle id="down_293" type="car" route="down" depart="167" />
    <vehicle id="left_294" type="car" route="left" depart="168" />
    <vehicle id="down_295" type="car" route="down" depart="168" />
    <vehicle id="down_296" type="car" route="down" depart="169" />
    <vehicle id="up_297" type="car" route="up" depart="169" />
    <vehicle id="left_298" type="car" route="left" depart="170" />
    <vehicle id="down_299" type="car" route="down" depart="170" />
    <vehicle id="up_300" type="car" route="up" depart="170" />
    <vehicle id="right_301" type="car" route="right" depart="171" />
    <vehicle id="down_302" type="car" route="down" depart="171" />
    <vehicle id="up_303" type="car" route="up" depart="171" />
    <vehicle id="right_304" type="car" route="right" depart="172" />
    <vehicle id="down_305" type="car" route="down" depart="174" />
    <vehicle id="up_306" type="car" route="up" depart="175" />
    <vehicle id="right_307" type="car" route="right" depart="176" />
    <vehicle id="left_308" type="car" route="left" depart="176" />
    <vehicle id="right_309" type="car" route="right" depart="177" />
    <vehicle id="left_310" type="car" route="left" depart="177" />
    <vehicle id="down_311" type="car" route="down" depart="178" />
    <vehicle id="up_312" type="car" route="up" depart="178" />
    <vehicle id="right_313" type="car" route="right" depart="179" />
    <vehicle id="down_314" type="car" route="down" depart="179" />
    <vehicle id="up_315" type="car" route="up" depart="179" />
    <vehicle id="right_316" type="car" route="right" depart="180" />
    <vehicle id="up_317" type="car" route="up" depart="181" />
    <vehicle id="right_318" type="car" route="right" depart="182" />
    <vehicle id="down_319" type="car" route="down" depart="182" />
    <vehicle id="left_320" type="car" route="left" depart="183" />
    <vehicle id="down_321" type="car" route="down" depart="183" />
    <vehicle id="left_322" type="car" route="left" depart="184" />
    <vehicle id="down_323" type="car" route="down" depart="184" />
    <vehicle id="up_324" type="car" route="up" depart="184" />
    <vehicle id="down_325" type="car" route="down" depart="185" />
    <vehicle id="right_326" type="car" route="right" depart="186" />
    <vehicle id="left_327" type="car" route="left" depart="187" />
    <vehicle id="down_328" type="car" route="down" depart="187" />
    <vehicle id="down_329" type="car" route="down" depart="189" />
    <vehicle id="up_330" type="car" route="up" depart="189" />
    <vehicle id="up_331" type="car" route="up" depart="190" />
    <vehicle id="down_332" type="car" route="down" depart="191" />
    <vehicle id="right_333" type="car" route="right" depart="192" />
    <vehicle id="down_334" type="car" route="down" depart="192" />
    <vehicle id="up_335" type="car" route="up" depart="192" />
    <vehicle id="right_336" type="car" route="right" depart="193" />
    <vehicle id="down_337" type="car" route="down" depart="193" />
    <vehicle id="up_338" type="car" route="up" depart="193" />
    <vehicle id="down_339" type="car" route="down" depart="194" />
    <vehicle id="up_340" type="car" route="up" depart="194" />
    <vehicle id="right_341" type="car" route="right" depart="196" />
    <vehicle id="up_342" type="car" route="up" depart="196" />
    <vehicle id="down_343" type="car" route="down" depart="198" />
    <vehicle id="down_344" type="car" route="down" depart="199" />
    <vehicle id="right_345" type="car" route="right" depart="200" />
    <vehicle id="left_346" type="car" route="left" depart="200" />
    <vehicle id="down_347" type="car" route="down" depart="200" />
    <vehicle id="left_348" type="car" route="left" depart="201" />
    <vehicle id="down_349" type="car" route="down" depart="201" />
    <vehicle id="up_350" type="car" route="up" depart="201" />
    <vehicle id="down_351" type="car" route="down" depart="202" />
    <vehicle id="up_352" type="car" route="up" depart="202" />
    <vehicle id="right_353" type="car" route="right" depart="203" />
    <vehicle id="down_354" type="car" route="down" depart="203" />
    <vehicle id="up_355" type="car" route="up" depart="203" />
    <vehicle id="left_356" type="car" route="left" depart="204" />
    <vehicle id="down_357" type="car" route="down" depart="205" />
    <vehicle id="down_358" type="car" route="down" depart="206" />
    <vehicle id="left_359" type="car" route="left" depart="209" />
    <vehicle id="down_360" type="car" route="down" depart="209" />
    <vehicle id="down_361" type="car" route="down" depart="210" />
    <vehicle id="down_362" type="car" route="down" depart="211" />
    <vehicle id="up_363" type="car" route="up" depart="211" />
    <vehicle id="up_364" type="car" route="up" depart="212" />
    <vehicle id="right_365" type="car" route="right" depart="213" />
    <vehicle id="down_366" type="car" route="down" depart="214" />
    <vehicle id="right_367" type="car" route="right" depart="216" />
    <vehicle id="down_368" type="car" route="down" depart="216" />
    <vehicle id="up_369" type="car" route="up" depart="216" />
    <vehicle id="right_370" type="car" route="right" depart="217" />
    <vehicle id="down_371" type="car" route="down" depart="217" />
    <vehicle id="right_372" type="car" route="right" depart="218" />
    <vehicle id="left_373" type="car" route="left" depart="218" />
    <vehicle id="right_374" type="car" route="right" depart="219" />
    <vehicle id="down_375" type="car" route="down" depart="219" />
    <vehicle id="right_376" type="car" route="right" depart="220" />
    <vehicle id="left_377" type="car" route="left" depart="220" />
    <vehicle id="down_378" type="car" route="down" depart="220" />
    <vehicle id="down_379" type="car" route="down" depart="221" />
    <vehicle id="down_380" type="car" route="down" depart="222" />
    <vehicle id="right_381" type="car" route="right" depart="223" />
    <vehicle id="down_382" type="car" route="down" depart="223" />
    <vehicle id="up_383" type="car" route="up" depart="223" />
    <vehicle id="left_384" type="car" route="left" depart="224" />
    <vehicle id="down_385" type="car" route="down" depart="224" />
    <vehicle id="left_386" type="car" route="left" depart="225" />
    <vehicle id="right_387" type="car" route="right" depart="226" />
    <vehicle id="right_388" type="car" route="right" depart="227" />
    <vehicle id="down_389" type="car" route="down" depart="227" />
    <vehicle id="right_390" type="car" route="right" depart="228" />
    <vehicle id="down_391" type="car" route="down" depart="228" />
    <vehicle id="up_392" type="car" route="up" depart="228" />
    <vehicle id="down_393" type="car" route="down" depart="230" />
    <vehicle id="left_394" type="car" route="left" depart="231" />
    <vehicle id="down_395" type="car" route="down" depart="231" />
    <vehicle id="left_396" type="car" route="left" depart="232" />
    <vehicle id="down_397" type="car" route="down" depart="232" />
    <vehicle id="right_398" type="car" route="right" depart="233" />
    <vehicle id="left_399" type="car" route="left" depart="233" />
    <vehicle id="down_400" type="car" route="down" depart="233" />
    <vehicle id="up_401" type="car" route="up" depart="234" />
    <vehicle id="left_402" type="car" route="left" depart="236" />
    <vehicle id="up_403" type="car" route="up" depart="236" />
    <vehicle id="down_404" type="car" route="down" depart="238" />
    <vehicle id="right_405" type="car" route="right" depart="239" />
    <vehicle id="down_406" type="car" route="down" depart="239" />
    <vehicle id="right_407" type="car" route="right" depart="241" />
    <vehicle id="left_408" type="car" route="left" depart="241" />
    <vehicle id="down_409" type="car" route="down" depart="241" />
    <vehicle id="down_410" type="car" route="down" depart="242" />
    <vehicle id="up_411" type="car" route="up" depart="242" />
    <vehicle id="down_412" type="car" route="down" depart="243" />
    <vehicle id="right_413" type="car" route="right" depart="244" />
    <vehicle id="down_414" type="car" route="down" depart="244" />
    <vehicle id="right_415" type="car" route="right" depart="245" />
    <vehicle id="down_416" type="car" route="down" depart="245" />
    <vehicle id="left_417" type="car" route="left" depart="247" />
    <vehicle id="down_418" type="car" route="down" depart="247" />
    <vehicle id="up_419" type="car" route="up" depart="247" />
    <vehicle id="up_420" type="car" route="up" depart="248" />
    <vehicle id="right_421" type="car" route="right" depart="250" />
    <vehicle id="down_422" type="car" route="down" depart="250" />
    <vehicle id="down_423" type="car" route="down" depart="251" />
    <vehicle id="up_424" type="car" route="up" depart="251" />
    <vehicle id="down_425" type="car" route="down" depart="252" />
    <vehicle id="left_426" type="car" route="left" depart="253" />
    <vehicle id="up_427" type="car" route="up" depart="253" />
    <vehicle id="right_428" type="car" route="right" depart="254" />
    <vehicle id="down_429" type="car" route="down" depart="254" />
    <vehicle id="right_430" type="car" route="right" depart="255" />
    <vehicle id="left_431" type="car" route="left" depart="255" />
    <vehicle id="up_432" type="car" route="up" depart="255" />
    <vehicle id="right_433" type="car" route="right" depart="256" />
    <vehicle id="down_434" type="car" route="down" depart="256" />
    <vehicle id="right_435" type="car" route="right" depart="257" />
    <vehicle id="left_436" type="car" route="left" depart="257" />
    <vehicle id="down_437" type="car" route="down" depart="257" />
    <vehicle id="up_438" type="car" route="up" depart="257" />
    <vehicle id="left_439" type="car" route="left" depart="258" />
    <vehicle id="down_440" type="car" route="down" depart="258" />
    <vehicle id="right_441" type="car" route="right" depart="259" />
    <vehicle id="left_442" type="car" route="left" depart="259" />
    <vehicle id="down_443" type="car" route="down" depart="259" />