<?xml version="1.0" encoding="UTF-8"?>

<!-- generated on 2021-11-28 13:40:30 by Eclipse SUMO jtrrouter Version 1.10.0
<configuration xmlns:xsi="http://www.w3.org/2001/XMLSchema-instance" xsi:noNamespaceSchemaLocation="http://sumo.dlr.de/xsd/jtrrouterConfiguration.xsd">

    <input>
        <net-file value="map.net.xml"/>
        <route-files value="flows.xml"/>
    </input>

    <output>
        <output-file value="map.rou.xml"/>
    </output>

    <processing>
        <no-internal-links value="true"/>
        <accept-all-destinations value="true"/>
    </processing>

    <time>
        <begin value="0"/>
        <end value="10000"/>
    </time>

</configuration>
-->

<routes xmlns:xsi="http://www.w3.org/2001/XMLSchema-instance" xsi:noNamespaceSchemaLocation="http://sumo.dlr.de/xsd/routes_file.xsd">
    <vehicle id="0.0" depart="0.00">
        <route edges="gneE64 -gneE61"/>
    </vehicle>
    <vehicle id="1.0" depart="0.00">
        <route edges="-gneE68 -gneE62 -gneE61"/>
    </vehicle>
    <vehicle id="10.0" depart="0.00">
        <route edges="gneE67 -gneE62 -gneE61"/>
    </vehicle>
    <vehicle id="100.0" depart="0.00">
        <route edges="gneE72"/>
    </vehicle>
    <vehicle id="1000.0" depart="0.00">
        <route edges="-gneE65 -gneE64"/>
    </vehicle>
    <vehicle id="1001.0" depart="0.00">
        <route edges="-gneE66 gneE72 gneE73"/>
    </vehicle>
    <vehicle id="1002.0" depart="0.00">
        <route edges="-gneE62 -gneE64"/>
    </vehicle>
    <vehicle id="1003.0" depart="0.00">
        <route edges="gneE71 gneE72"/>
    </vehicle>
    <vehicle id="1004.0" depart="0.00">
        <route edges="gneE64 gneE65 gneE66"/>
    </vehicle>
    <vehicle id="1005.0" depart="0.00">
        <route edges="-gneE73 -gneE68 -gneE67"/>
    </vehicle>
    <vehicle id="1006.0" depart="0.00">
        <route edges="gneE72 gneE73"/>
    </vehicle>
    <vehicle id="1007.0" depart="0.00">
        <route edges="gneE67 gneE68 gneE69"/>
    </vehicle>
    <vehicle id="1008.0" depart="0.00">
        <route edges="-gneE72 -gneE65 gneE62 -gneE67"/>
    </vehicle>
    <vehicle id="1009.0" depart="0.00">
        <route edges="-gneE72 -gneE71"/>
    </vehicle>
    <vehicle id="101.0" depart="0.00">
        <route edges="gneE68 gneE69"/>
    </vehicle>
    <vehicle id="1010.0" depart="0.00">
        <route edges="-gneE73 gneE69"/>
    </vehicle>
    <vehicle id="1011.0" depart="0.00">
        <route edges="-gneE68 gneE63"/>
    </vehicle>
    <vehicle id="1012.0" depart="0.00">
        <route edges="gneE67 gneE68 gneE69"/>
    </vehicle>
    <vehicle id="1013.0" depart="0.00">
        <route edges="gneE61 gneE62 -gneE67"/>
    </vehicle>
    <vehicle id="1014.0" depart="0.00">
        <route edges="gneE61 -gneE64"/>
    </vehicle>
    <vehicle id="1015.0" depart="0.00">
        <route edges="-gneE66 -gneE65"/>
    </vehicle>
    <vehicle id="1016.0" depart="0.00">
        <route edges="gneE64 gneE62 -gneE67"/>
    </vehicle>
    <vehicle id="1017.0" depart="0.00">
        <route edges="gneE68 gneE69"/>
    </vehicle>
    <vehicle id="1018.0" depart="0.00">
        <route edges="gneE65 gneE66"/>
    </vehicle>
    <vehicle id="1019.0" depart="0.00">
        <route edges="-gneE68 gneE63"/>
    </vehicle>
    <vehicle id="102.0" depart="0.00">
        <route edges="-gneE73 -gneE68 -gneE67"/>
    </vehicle>
    <vehicle id="1020.0" depart="0.00">
        <route edges="gneE62 gneE63"/>
    </vehicle>
    <vehicle id="1021.0" depart="0.00">
        <route edges="-gneE66 gneE72 -gneE68 gneE63"/>
    </vehicle>
    <vehicle id="1022.0" depart="0.00">
        <route edges="gneE65 gneE66"/>
    </vehicle>
    <vehicle id="1023.0" depart="0.00">
        <route edges="-gneE73 gneE69"/>
    </vehicle>
    <vehicle id="1024.0" depart="0.00">
        <route edges="-gneE69 gneE73"/>
    </vehicle>
    <vehicle id="1025.0" depart="0.00">
        <route edges="-gneE62 -gneE61"/>
    </vehicle>
    <vehicle id="1026.0" depart="0.00">
        <route edges="gneE72 gneE69"/>
    </vehicle>
    <vehicle id="1027.0" depart="0.00">
        <route edges="gneE72 gneE69"/>
    </vehicle>
    <vehicle id="1028.0" depart="0.00">
        <route edges="-gneE66 -gneE65 -gneE61"/>
    </vehicle>
    <vehicle id="1029.0" depart="0.00">
        <route edges="-gneE66 gneE72"/>
    </vehicle>
    <vehicle id="103.0" depart="0.00">
        <route edges="-gneE72 -gneE65 gneE62 gneE68 gneE69"/>
    </vehicle>
    <vehicle id="1030.0" depart="0.00">
        <route edges="gneE61 gneE65 gneE72 gneE69"/>
    </vehicle>
    <vehicle id="1031.0" depart="0.00">
        <route edges="-gneE72 -gneE71"/>
    </vehicle>
    <vehicle id="1032.0" depart="0.00">
        <route edges="-gneE69 -gneE68 -gneE67"/>
    </vehicle>
    <vehicle id="1033.0" depart="0.00">
        <route edges="gneE61 gneE62 -gneE67"/>
    </vehicle>
    <vehicle id="1034.0" depart="0.00">
        <route edges="-gneE63 gneE68 gneE69"/>
    </vehicle>
    <vehicle id="1035.0" depart="0.00">
        <route edges="-gneE73 gneE69"/>
    </vehicle>
    <vehicle id="1036.0" depart="0.00">
        <route edges="gneE71 gneE72 gneE73"/>
    </vehicle>
    <vehicle id="1037.0" depart="0.00">
        <route edges="-gneE72 -gneE65 -gneE61"/>
    </vehicle>
    <vehicle id="1038.0" depart="0.00">
        <route edges="-gneE66 gneE72 gneE73"/>
    </vehicle>
    <vehicle id="1039.0" depart="0.00">
        <route edges="-gneE68 gneE63"/>
    </vehicle>
    <vehicle id="104.0" depart="0.00">
        <route edges="-gneE72 -gneE65 gneE62 gneE63"/>
    </vehicle>
    <vehicle id="1040.0" depart="0.00">
        <route edges="gneE62 -gneE67"/>
    </vehicle>
    <vehicle id="1041.0" depart="0.00">
        <route edges="-gneE65 gneE62 gneE68 gneE73"/>
    </vehicle>
    <vehicle id="1042.0" depart="0.00">
        <route edges="-gneE72 -gneE71"/>
    </vehicle>
    <vehicle id="1043.0" depart="0.00">
        <route edges="-gneE73 -gneE72 -gneE65 -gneE64"/>
    </vehicle>
    <vehicle id="1044.0" depart="0.00">
        <route edges="gneE64 -gneE61"/>
    </vehicle>
    <vehicle id="1045.0" depart="0.00">
        <route edges="gneE68 gneE73"/>
    </vehicle>
    <vehicle id="1046.0" depart="0.00">
        <route edges="gneE64 -gneE61"/>
    </vehicle>
    <vehicle id="1047.0" depart="0.00">
        <route edges="-gneE65 gneE62 gneE68"/>
    </vehicle>
    <vehicle id="1048.0" depart="0.00">
        <route edges="-gneE65 -gneE64"/>
    </vehicle>
    <vehicle id="1049.0" depart="0.00">
        <route edges="-gneE73 -gneE72 -gneE65 gneE62 gneE63"/>
    </vehicle>
    <vehicle id="105.0" depart="0.00">
        <route edges="-gneE68 -gneE67"/>
    </vehicle>
    <vehicle id="1050.0" depart="0.00">
        <route edges="gneE61 gneE65"/>
    </vehicle>
    <vehicle id="1051.0" depart="0.00">
        <route edges="-gneE62 -gneE61"/>
    </vehicle>
    <vehicle id="1052.0" depart="0.00">
        <route edges="gneE68 gneE73"/>
    </vehicle>
    <vehicle id="1053.0" depart="0.00">
        <route edges="gneE64 gneE65 gneE66"/>
    </vehicle>
    <vehicle id="1054.0" depart="0.00">
        <route edges="-gneE72 -gneE71"/>
    </vehicle>
    <vehicle id="1055.0" depart="0.00">
        <route edges="-gneE66 -gneE71"/>
    </vehicle>
    <vehicle id="1056.0" depart="0.00">
        <route edges="-gneE62 -gneE61"/>
    </vehicle>
    <vehicle id="1057.0" depart="0.00">
        <route edges="-gneE69 -gneE68 -gneE67"/>
    </vehicle>
    <vehicle id="1058.0" depart="0.00">
        <route edges="gneE64 gneE62 gneE68 gneE69"/>
    </vehicle>
    <vehicle id="1059.0" depart="0.00">
        <route edges="-gneE73 -gneE72"/>
    </vehicle>
    <vehicle id="106.0" depart="0.00">
        <route edges="-gneE73 -gneE68 -gneE62 -gneE61"/>
    </vehicle>
    <vehicle id="1060.0" depart="0.00">
        <route edges="-gneE62 gneE65 gneE66"/>
    </vehicle>
    <vehicle id="1061.0" depart="0.00">
        <route edges="-gneE62 -gneE61"/>
    </vehicle>
    <vehicle id="1062.0" depart="0.00">
        <route edges="-gneE68 -gneE67"/>
    </vehicle>
    <vehicle id="1063.0" depart="0.00">
        <route edges="-gneE62 -gneE61"/>
    </vehicle>
    <vehicle id="1064.0" depart="0.00">
        <route edges="gneE64 gneE62 gneE63"/>
    </vehicle>
    <vehicle id="1065.0" depart="0.00">
        <route edges="gneE71 -gneE65 gneE62 gneE63"/>
    </vehicle>
    <vehicle id="1066.0" depart="0.00">
        <route edges="-gneE63 -gneE62 -gneE61"/>
    </vehicle>
    <vehicle id="1067.0" depart="0.00">
        <route edges="-gneE66 gneE72 gneE73"/>
    </vehicle>
    <vehicle id="1068.0" depart="0.00">
        <route edges="gneE68 gneE69"/>
    </vehicle>
    <vehicle id="1069.0" depart="0.00">
        <route edges="-gneE72 -gneE71"/>
    </vehicle>
    <vehicle id="107.0" depart="0.00">
        <route edges="gneE72 gneE73"/>
    </vehicle>
    <vehicle id="1070.0" depart="0.00">
        <route edges="-gneE72 -gneE65 -gneE64"/>
    </vehicle>
    <vehicle id="1071.0" depart="0.00">
        <route edges="gneE72 gneE69"/>
    </vehicle>
    <vehicle id="1072.0" depart="0.00">
        <route edges="gneE64 gneE65 -gneE71"/>
    </vehicle>
    <vehicle id="1073.0" depart="0.00">
        <route edges="gneE64 gneE62 gneE63"/>
    </vehicle>
    <vehicle id="1074.0" depart="0.00">
        <route edges="gneE67 -gneE62"/>
    </vehicle>
    <vehicle id="1075.0" depart="0.00">
        <route edges="-gneE72 -gneE71"/>
    </vehicle>
    <vehicle id="1076.0" depart="0.00">
        <route edges="-gneE62 -gneE61"/>
    </vehicle>
    <vehicle id="1077.0" depart="0.00">
        <route edges="-gneE65 gneE62 gneE63"/>
    </vehicle>
    <vehicle id="1078.0" depart="0.00">
        <route edges="-gneE72 -gneE71"/>
    </vehicle>
    <vehicle id="1079.0" depart="0.00">
        <route edges="gneE62 -gneE67"/>
    </vehicle>
    <vehicle id="108.0" depart="0.00">
        <route edges="gneE61 -gneE64"/>
    </vehicle>
    <vehicle id="1080.0" depart="0.00">
        <route edges="-gneE63 -gneE67"/>
    </vehicle>
    <vehicle id="1081.0" depart="0.00">
        <route edges="-gneE62 gneE65 gneE66"/>
    </vehicle>
    <vehicle id="1082.0" depart="0.00">
        <route edges="gneE68 gneE69"/>
    </vehicle>
    <vehicle id="1083.0" depart="0.00">
        <route edges="-gneE73 -gneE72 -gneE71"/>
    </vehicle>
    <vehicle id="1084.0" depart="0.00">
        <route edges="-gneE63 -gneE67"/>
    </vehicle>
    <vehicle id="1085.0" depart="0.00">
        <route edges="gneE71 gneE72 gneE73"/>
    </vehicle>
    <vehicle id="1086.0" depart="0.00">
        <route edges="-gneE62 -gneE61"/>
    </vehicle>
    <vehicle id="1087.0" depart="0.00">
        <route edges="-gneE69 gneE73"/>
    </vehicle>
    <vehicle id="1088.0" depart="0.00">
        <route edges="gneE62 gneE68"/>
    </vehicle>
    <vehicle id="1089.0" depart="0.00">
        <route edges="gneE65 -gneE71"/>
    </vehicle>
    <vehicle id="109.0" depart="0.00">
        <route edges="-gneE65 -gneE64"/>
    </vehicle>
    <vehicle id="1090.0" depart="0.00">
        <route edges="-gneE63 -gneE67"/>
    </vehicle>
    <vehicle id="1091.0" depart="0.00">
        <route edges="-gneE66 -gneE71"/>
    </vehicle>
    <vehicle id="1092.0" depart="0.00">
        <route edges="-gneE72 -gneE71"/>
    </vehicle>
    <vehicle id="1093.0" depart="0.00">
        <route edges="-gneE69 -gneE72 gneE66"/>
    </vehicle>
    <vehicle id="1094.0" depart="0.00">
        <route edges="-gneE65 -gneE64"/>
    </vehicle>
    <vehicle id="1095.0" depart="0.00">
        <route edges="gneE65 -gneE71"/>
    </vehicle>
    <vehicle id="1096.0" depart="0.00">
        <route edges="gneE72 -gneE68 -gneE62 -gneE61"/>
    </vehicle>
    <vehicle id="1097.0" depart="0.00">
        <route edges="-gneE72 gneE66"/>
    </vehicle>
    <vehicle id="1098.0" depart="0.00">
        <route edges="-gneE69 gneE73"/>
    </vehicle>
    <vehicle id="1099.0" depart="0.00">
        <route edges="gneE72 gneE73"/>
    </vehicle>
    <vehicle id="11.0" depart="0.00">
        <route edges="-gneE69 -gneE68 -gneE67"/>
    </vehicle>
    <vehicle id="110.0" depart="0.00">
        <route edges="gneE72 gneE73"/>
    </vehicle>
    <vehicle id="1100.0" depart="0.00">
        <route edges="gneE67 -gneE62 -gneE61"/>
    </vehicle>
    <vehicle id="1101.0" depart="0.00">
        <route edges="-gneE68 -gneE62 -gneE64"/>
    </vehicle>
    <vehicle id="1102.0" depart="0.00">
        <route edges="-gneE73 -gneE68"/>
    </vehicle>
    <vehicle id="1103.0" depart="0.00">
        <route edges="gneE72 gneE73"/>
    </vehicle>
    <vehicle id="1104.0" depart="0.00">
        <route edges="gneE64 gneE65"/>
    </vehicle>
    <vehicle id="1105.0" depart="0.00">
        <route edges="-gneE63 gneE68 gneE69"/>
    </vehicle>
    <vehicle id="1106.0" depart="0.00">
        <route edges="gneE67 -gneE62 gneE65 gneE72 gneE73"/>
    </vehicle>
    <vehicle id="1107.0" depart="0.00">
        <route edges="-gneE63 gneE68 gneE69"/>
    </vehicle>
    <vehicle id="1108.0" depart="0.00">
        <route edges="gneE65"/>
    </vehicle>
    <vehicle id="1109.0" depart="0.00">
        <route edges="gneE65 gneE72 gneE73"/>
    </vehicle>
    <vehicle id="111.0" depart="0.00">
        <route edges="gneE61 gneE62 -gneE67"/>
    </vehicle>
    <vehicle id="1110.0" depart="0.00">
        <route edges="-gneE63 -gneE62 -gneE64"/>
    </vehicle>
    <vehicle id="1111.0" depart="0.00">
        <route edges="-gneE68"/>
    </vehicle>
    <vehicle id="1112.0" depart="0.00">
        <route edges="-gneE68 gneE63"/>
    </vehicle>
    <vehicle id="1113.0" depart="0.00">
        <route edges="-gneE65 -gneE64"/>
    </vehicle>
    <vehicle id="1114.0" depart="0.00">
        <route edges="gneE61 gneE62 gneE63"/>
    </vehicle>
    <vehicle id="1115.0" depart="0.00">
        <route edges="-gneE62 -gneE61"/>
    </vehicle>
    <vehicle id="1116.0" depart="0.00">
        <route edges="-gneE63 -gneE62 gneE65 -gneE71"/>
    </vehicle>
    <vehicle id="1117.0" depart="0.00">
        <route edges="-gneE69 -gneE68 gneE63"/>
    </vehicle>
    <vehicle id="1118.0" depart="0.00">
        <route edges="-gneE68 -gneE67"/>
    </vehicle>
    <vehicle id="1119.0" depart="0.00">
        <route edges="-gneE63 -gneE67"/>
    </vehicle>
    <vehicle id="112.0" depart="0.00">
        <route edges="-gneE62 -gneE64"/>
    </vehicle>
    <vehicle id="1120.0" depart="0.00">
        <route edges="gneE71 gneE66"/>
    </vehicle>
    <vehicle id="1121.0" depart="0.00">
        <route edges="gneE62 gneE68 -gneE72 gneE66"/>
    </vehicle>
    <vehicle id="1122.0" depart="0.00">
        <route edges="-gneE72 -gneE71"/>
    </vehicle>
    <vehicle id="1123.0" depart="0.00">
        <route edges="-gneE68 gneE63"/>
    </vehicle>
    <vehicle id="1124.0" depart="0.00">
        <route edges="-gneE63 gneE68 gneE69"/>
    </vehicle>
    <vehicle id="1125.0" depart="0.00">
        <route edges="-gneE72"/>
    </vehicle>
    <vehicle id="1126.0" depart="0.00">
        <route edges="-gneE63 -gneE67"/>
    </vehicle>
    <vehicle id="1127.0" depart="0.00">
        <route edges="-gneE66 gneE72 gneE69"/>
    </vehicle>
    <vehicle id="1128.0" depart="0.00">
        <route edges="gneE62 -gneE67"/>
    </vehicle>
    <vehicle id="1129.0" depart="0.00">
        <route edges="-gneE63 -gneE67"/>
    </vehicle>
    <vehicle id="113.0" depart="0.00">
        <route edges="gneE61 gneE65 gneE72 gneE73"/>
    </vehicle>
    <vehicle id="1130.0" depart="0.00">
        <route edges="gneE72 -gneE68"/>
    </vehicle>
    <vehicle id="1131.0" depart="0.00">
        <route edges="gneE62 gneE68"/>
    </vehicle>
    <vehicle id="1132.0" depart="0.00">
        <route edges="-gneE69 -gneE68"/>
    </vehicle>
    <vehicle id="1133.0" depart="0.00">
        <route edges="gneE68 gneE69"/>
    </vehicle>
    <vehicle id="1134.0" depart="0.00">
        <route edges="gneE72 gneE73"/>
    </vehicle>
    <vehicle id="1135.0" depart="0.00">
        <route edges="-gneE69 gneE73"/>
    </vehicle>
    <vehicle id="1136.0" depart="0.00">
        <route edges="-gneE66 -gneE65 gneE62 gneE63"/>
    </vehicle>
    <vehicle id="1137.0" depart="0.00">
        <route edges="gneE72 gneE73"/>
    </vehicle>
    <vehicle id="1138.0" depart="0.00">
        <route edges="-gneE68 gneE63"/>
    </vehicle>
    <vehicle id="1139.0" depart="0.00">
        <route edges="-gneE73 -gneE72 -gneE71"/>
    </vehicle>
    <vehicle id="114.0" depart="0.00">
        <route edges="-gneE65 -gneE64"/>
    </vehicle>
    <vehicle id="1140.0" depart="0.00">
        <route edges="-gneE66 -gneE71"/>
    </vehicle>
    <vehicle id="1141.0" depart="0.00">
        <route edges="gneE68 -gneE72 -gneE71"/>
    </vehicle>
    <vehicle id="1142.0" depart="0.00">
        <route edges="-gneE63 -gneE67"/>
    </vehicle>
    <vehicle id="1143.0" depart="0.00">
        <route edges="gneE62"/>
    </vehicle>
    <vehicle id="1144.0" depart="0.00">
        <route edges="gneE64 gneE62"/>
    </vehicle>
    <vehicle id="1145.0" depart="0.00">
        <route edges="gneE72 gneE73"/>
    </vehicle>
    <vehicle id="1146.0" depart="0.00">
        <route edges="gneE65 -gneE71"/>
    </vehicle>
    <vehicle id="1147.0" depart="0.00">
        <route edges="-gneE68 -gneE67"/>
    </vehicle>
    <vehicle id="1148.0" depart="0.00">
        <route edges="gneE68"/>
    </vehicle>
    <vehicle id="1149.0" depart="0.00">
        <route edges="-gneE72"/>
    </vehicle>
    <vehicle id="115.0" depart="0.00">
        <route edges="-gneE63 -gneE62 -gneE61"/>
    </vehicle>
    <vehicle id="1150.0" depart="0.00">
        <route edges="gneE64 gneE65 -gneE71"/>
    </vehicle>
    <vehicle id="1151.0" depart="0.00">
        <route edges="gneE64 gneE62 gneE63"/>
    </vehicle>
    <vehicle id="1152.0" depart="0.00">
        <route edges="gneE67 -gneE62"/>
    </vehicle>
    <vehicle id="1153.0" depart="0.00">
        <route edges="gneE72 gneE69"/>
    </vehicle>
    <vehicle id="1154.0" depart="0.00">
        <route edges="-gneE72 -gneE71"/>
    </vehicle>
    <vehicle id="1155.0" depart="0.00">
        <route edges="gneE71 gneE66"/>
    </vehicle>
    <vehicle id="1156.0" depart="0.00">
        <route edges="gneE61 gneE65 gneE66"/>
    </vehicle>
    <vehicle id="1157.0" depart="0.00">
        <route edges="-gneE69 gneE73"/>
    </vehicle>
    <vehicle id="1158.0" depart="0.00">
        <route edges="gneE61 gneE65"/>
    </vehicle>
    <vehicle id="1159.0" depart="0.00">
        <route edges="-gneE63 gneE68"/>
    </vehicle>
    <vehicle id="116.0" depart="0.00">
        <route edges="gneE62 gneE63"/>
    </vehicle>
    <vehicle id="1160.0" depart="0.00">
        <route edges="gneE64 gneE62 -gneE67"/>
    </vehicle>
    <vehicle id="1161.0" depart="0.00">
        <route edges="gneE64 -gneE61"/>
    </vehicle>
    <vehicle id="1162.0" depart="0.00">
        <route edges="gneE72 gneE69"/>
    </vehicle>
    <vehicle id="1163.0" depart="0.00">
        <route edges="-gneE72 gneE66"/>
    </vehicle>
    <vehicle id="1164.0" depart="0.00">
        <route edges="gneE72 gneE69"/>
    </vehicle>
    <vehicle id="1165.0" depart="0.00">
        <route edges="-gneE62 -gneE64"/>
    </vehicle>
    <vehicle id="1166.0" depart="0.00">
        <route edges="gneE61 gneE62"/>
    </vehicle>
    <vehicle id="1167.0" depart="0.00">
        <route edges="gneE62 gneE63"/>
    </vehicle>
    <vehicle id="1168.0" depart="0.00">
        <route edges="-gneE73 -gneE72 -gneE65 -gneE64"/>
    </vehicle>
    <vehicle id="1169.0" depart="0.00">
        <route edges="gneE67 gneE63"/>
    </vehicle>
    <vehicle id="117.0" depart="0.00">
        <route edges="-gneE66 -gneE65 -gneE64"/>
    </vehicle>
    <vehicle id="1170.0" depart="0.00">
        <route edges="gneE61 -gneE64"/>
    </vehicle>
    <vehicle id="1171.0" depart="0.00">
        <route edges="-gneE62"/>
    </vehicle>
    <vehicle id="1172.0" depart="0.00">
        <route edges="-gneE72 -gneE71"/>
    </vehicle>
    <vehicle id="1173.0" depart="0.00">
        <route edges="-gneE63 gneE68 gneE69"/>
    </vehicle>
    <vehicle id="1174.0" depart="0.00">
        <route edges="-gneE65 gneE62 gneE68 gneE69"/>
    </vehicle>
    <vehicle id="1175.0" depart="0.00">
        <route edges="-gneE73 -gneE68 gneE63"/>
    </vehicle>
    <vehicle id="1176.0" depart="0.00">
        <route edges="-gneE73 -gneE72"/>
    </vehicle>
    <vehicle id="1177.0" depart="0.00">
        <route edges="-gneE73 -gneE68 -gneE62 -gneE64"/>
    </vehicle>
    <vehicle id="1178.0" depart="0.00">
        <route edges="-gneE69 -gneE68 gneE63"/>
    </vehicle>
    <vehicle id="1179.0" depart="0.00">
        <route edges="gneE67 -gneE62"/>
    </vehicle>
    <vehicle id="118.0" depart="0.00">
        <route edges="gneE71 -gneE65"/>
    </vehicle>
    <vehicle id="1180.0" depart="0.00">
        <route edges="gneE68 -gneE72 -gneE71"/>
    </vehicle>
    <vehicle id="1181.0" depart="0.00">
        <route edges="gneE64 gneE65 gneE66"/>
    </vehicle>
    <vehicle id="1182.0" depart="0.00">
        <route edges="gneE72 gneE73"/>
    </vehicle>
    <vehicle id="1183.0" depart="0.00">
        <route edges="-gneE65 -gneE64"/>
    </vehicle>
    <vehicle id="1184.0" depart="0.00">
        <route edges="gneE61 gneE62 gneE63"/>
    </vehicle>
    <vehicle id="1185.0" depart="0.00">
        <route edges="-gneE66 -gneE71"/>
    </vehicle>
    <vehicle id="1186.0" depart="0.00">
        <route edges="-gneE65 -gneE64"/>
    </vehicle>
    <vehicle id="1187.0" depart="0.00">
        <route edges="-gneE72 -gneE71"/>
    </vehicle>
    <vehicle id="1188.0" depart="0.00">
        <route edges="gneE62 gneE63"/>
    </vehicle>
    <vehicle id="1189.0" depart="0.00">
        <route edges="gneE62 gneE63"/>
    </vehicle>
    <vehicle id="119.0" depart="0.00">
        <route edges="gneE62 gneE63"/>
    </vehicle>
    <vehicle id="1190.0" depart="0.00">
        <route edges="gneE65 gneE72 gneE69"/>
    </vehicle>
    <vehicle id="1191.0" depart="0.00">
        <route edges="gneE67 gneE68"/>
    </vehicle>
    <vehicle id="1192.0" depart="0.00">
        <route edges="-gneE63 -gneE62"/>
    </vehicle>
    <vehicle id="1193.0" depart="0.00">
        <route edges="gneE68 -gneE72 -gneE65 -gneE64"/>
    </vehicle>
    <vehicle id="1194.0" depart="0.00">
        <route edges="-gneE69 -gneE72"/>
    </vehicle>
    <vehicle id="1195.0" depart="0.00">
        <route edges="-gneE68 -gneE67"/>
    </vehicle>
    <vehicle id="1196.0" depart="0.00">
        <route edges="gneE61 gneE65"/>
    </vehicle>
    <vehicle id="1197.0" depart="0.00">
        <route edges="gneE62 gneE63"/>
    </vehicle>
    <vehicle id="1198.0" depart="0.00">
        <route edges="gneE62 gneE68 gneE73"/>
    </vehicle>
    <vehicle id="1199.0" depart="0.00">
        <route edges="gneE68 gneE73"/>
    </vehicle>
    <vehicle id="12.0" depart="0.00">
        <route edges="gneE72 -gneE68"/>
    </vehicle>
    <vehicle id="120.0" depart="0.00">
        <route edges="-gneE72 -gneE71"/>
    </vehicle>
    <vehicle id="1200.0" depart="0.00">
        <route edges="gneE68 -gneE72 gneE66"/>
    </vehicle>
    <vehicle id="1201.0" depart="0.00">
        <route edges="-gneE68 gneE63"/>
    </vehicle>
    <vehicle id="1202.0" depart="0.00">
        <route edges="-gneE63 -gneE62 -gneE64"/>
    </vehicle>
    <vehicle id="1203.0" depart="0.00">
        <route edges="-gneE63 -gneE67"/>
    </vehicle>
    <vehicle id="1204.0" depart="0.00">
        <route edges="-gneE65 -gneE64"/>
    </vehicle>
    <vehicle id="1205.0" depart="0.00">
        <route edges="gneE61 -gneE64"/>
    </vehicle>
    <vehicle id="1206.0" depart="0.00">
        <route edges="-gneE65 -gneE64"/>
    </vehicle>
    <vehicle id="1207.0" depart="0.00">
        <route edges="-gneE65 -gneE64"/>
    </vehicle>
    <vehicle id="1208.0" depart="0.00">
        <route edges="gneE65"/>
    </vehicle>
    <vehicle id="1209.0" depart="0.00">
        <route edges="gneE72 gneE73"/>
    </vehicle>
    <vehicle id="121.0" depart="0.00">
        <route edges="gneE61 gneE65 gneE66"/>
    </vehicle>
    <vehicle id="1210.0" depart="0.00">
        <route edges="-gneE73 -gneE72 -gneE71"/>
    </vehicle>
    <vehicle id="1211.0" depart="0.00">
        <route edges="-gneE69 -gneE72"/>
    </vehicle>
    <vehicle id="1212.0" depart="0.00">
        <route edges="-gneE62 -gneE64"/>
    </vehicle>
    <vehicle id="1213.0" depart="0.00">
        <route edges="-gneE62 -gneE64"/>
    </vehicle>
    <vehicle id="1214.0" depart="0.00">
        <route edges="gneE68 gneE73"/>
    </vehicle>
    <vehicle id="1215.0" depart="0.00">
        <route edges="gneE61 gneE62 -gneE67"/>
    </vehicle>
    <vehicle id="1216.0" depart="0.00">
        <route edges="gneE64 gneE65 gneE72 gneE69"/>
    </vehicle>
    <vehicle id="1217.0" depart="0.00">
        <route edges="gneE68 -gneE72"/>
    </vehicle>
    <vehicle id="1218.0" depart="0.00">
        <route edges="-gneE63 gneE68 gneE69"/>
    </vehicle>
    <vehicle id="1219.0" depart="0.00">
        <route edges="gneE67 gneE68 gneE69"/>
    </vehicle>
    <vehicle id="122.0" depart="0.00">
        <route edges="-gneE66 -gneE71"/>
    </vehicle>
    <vehicle id="1220.0" depart="0.00">
        <route edges="-gneE68 -gneE62 -gneE61"/>
    </vehicle>
    <vehicle id="1221.0" depart="0.00">
        <route edges="-gneE65 -gneE64"/>
    </vehicle>
    <vehicle id="1222.0" depart="0.00">
        <route edges="gneE65 gneE66"/>
    </vehicle>
    <vehicle id="1223.0" depart="0.00">
        <route edges="gneE61 -gneE64"/>
    </vehicle>
    <vehicle id="1224.0" depart="0.00">
        <route edges="-gneE63 gneE68"/>
    </vehicle>
    <vehicle id="1225.0" depart="0.00">
        <route edges="gneE68 gneE73"/>
    </vehicle>
    <vehicle id="1226.0" depart="0.00">
        <route edges="gneE68 gneE69"/>
    </vehicle>
    <vehicle id="1227.0" depart="0.00">
        <route edges="gneE65 gneE66"/>
    </vehicle>
    <vehicle id="1228.0" depart="0.00">
        <route edges="gneE72 gneE69"/>
    </vehicle>
    <vehicle id="1229.0" depart="0.00">
        <route edges="gneE68"/>
    </vehicle>
    <vehicle id="123.0" depart="0.00">
        <route edges="-gneE66 -gneE71"/>
    </vehicle>
    <vehicle id="1230.0" depart="0.00">
        <route edges="-gneE68 -gneE67"/>
    </vehicle>
    <vehicle id="1231.0" depart="0.00">
        <route edges="-gneE73 -gneE68"/>
    </vehicle>
    <vehicle id="1232.0" depart="0.00">
        <route edges="gneE68 -gneE72"/>
    </vehicle>
    <vehicle id="1233.0" depart="0.00">
        <route edges="gneE72 -gneE68 -gneE62 -gneE61"/>
    </vehicle>
    <vehicle id="1234.0" depart="0.00">
        <route edges="-gneE66 gneE72 -gneE68 -gneE67"/>
    </vehicle>
    <vehicle id="1235.0" depart="0.00">
        <route edges="gneE62 gneE68 gneE73"/>
    </vehicle>
    <vehicle id="1236.0" depart="0.00">
        <route edges="gneE65"/>
    </vehicle>
    <vehicle id="1237.0" depart="0.00">
        <route edges="-gneE65 -gneE64"/>
    </vehicle>
    <vehicle id="1238.0" depart="0.00">
        <route edges="-gneE66 -gneE65"/>
    </vehicle>
    <vehicle id="1239.0" depart="0.00">
        <route edges="-gneE62 gneE65 -gneE71"/>
    </vehicle>
    <vehicle id="124.0" depart="0.00">
        <route edges="gneE64 -gneE61"/>
    </vehicle>
    <vehicle id="1240.0" depart="0.00">
        <route edges="-gneE68 gneE63"/>
    </vehicle>
    <vehicle id="1241.0" depart="0.00">
        <route edges="-gneE69 gneE73"/>
    </vehicle>
    <vehicle id="1242.0" depart="0.00">
        <route edges="-gneE68 -gneE67"/>
    </vehicle>
    <vehicle id="1243.0" depart="0.00">
        <route edges="gneE68 gneE73"/>
    </vehicle>
    <vehicle id="1244.0" depart="0.00">
        <route edges="gneE64 -gneE61"/>
    </vehicle>
    <vehicle id="1245.0" depart="0.00">
        <route edges="gneE72 gneE73"/>
    </vehicle>
    <vehicle id="1246.0" depart="0.00">
        <route edges="gneE71 gneE72 gneE73"/>
    </vehicle>
    <vehicle id="1247.0" depart="0.00">
        <route edges="gneE68 gneE73"/>
    </vehicle>
    <vehicle id="1248.0" depart="0.00">
        <route edges="gneE68 -gneE72 -gneE71"/>
    </vehicle>
    <vehicle id="1249.0" depart="0.00">
        <route edges="gneE65 gneE72 gneE73"/>
    </vehicle>
    <vehicle id="125.0" depart="0.00">
        <route edges="-gneE69 gneE73"/>
    </vehicle>
    <vehicle id="1250.0" depart="0.00">
        <route edges="gneE67 gneE68 gneE69"/>
    </vehicle>
    <vehicle id="1251.0" depart="0.00">
        <route edges="-gneE73 gneE69"/>
    </vehicle>
    <vehicle id="1252.0" depart="0.00">
        <route edges="-gneE68 gneE63"/>
    </vehicle>
    <vehicle id="1253.0" depart="0.00">
        <route edges="-gneE73 -gneE68 -gneE67"/>
    </vehicle>
    <vehicle id="1254.0" depart="0.00">
        <route edges="gneE71 gneE66"/>
    </vehicle>
    <vehicle id="1255.0" depart="0.00">
        <route edges="gneE61 gneE65 -gneE71"/>
    </vehicle>
    <vehicle id="1256.0" depart="0.00">
        <route edges="gneE71 gneE66"/>
    </vehicle>
    <vehicle id="1257.0" depart="0.00">
        <route edges="gneE72 -gneE68"/>
    </vehicle>
    <vehicle id="1258.0" depart="0.00">
        <route edges="-gneE62 gneE65 gneE66"/>
    </vehicle>
    <vehicle id="1259.0" depart="0.00">
        <route edges="gneE65 gneE66"/>
    </vehicle>
    <vehicle id="126.0" depart="0.00">
        <route edges="-gneE63 gneE68 gneE73"/>
    </vehicle>
    <vehicle id="1260.0" depart="0.00">
        <route edges="-gneE73 -gneE68 -gneE62 -gneE61"/>
    </vehicle>
    <vehicle id="1261.0" depart="0.00">
        <route edges="-gneE69 gneE73"/>
    </vehicle>
    <vehicle id="1262.0" depart="0.00">
        <route edges="gneE61 gneE62 gneE63"/>
    </vehicle>
    <vehicle id="1263.0" depart="0.00">
        <route edges="-gneE72 -gneE65"/>
    </vehicle>
    <vehicle id="1264.0" depart="0.00">
        <route edges="-gneE68 -gneE62 -gneE64"/>
    </vehicle>
    <vehicle id="1265.0" depart="0.00">
        <route edges="-gneE69 -gneE68 gneE63"/>